geometry optimzed in LAMMPS
_audit_creation_date              2020-11-30 
_audit_creation_method            'lammps2cif' 
_symmetry_space_group_name_H-M    'P1' 
_symmetry_Int_Tables_number       1 
_symmetry_cell_setting            triclinic 
loop_ 
_symmetry_equiv_pos_as_xyz 
  x,y,z 
_cell_length_a                    55.89413883998298 
_cell_length_b                    55.61102935153452 
_cell_length_c                    45.36025495416213 
_cell_angle_alpha                 90.50031342668154 
_cell_angle_beta                  90.62817032291382 
_cell_angle_gamma                 120.53264878284094 
loop_ 
_atom_site_label 
_atom_site_type_symbol 
_atom_site_fract_x 
_atom_site_fract_y 
_atom_site_fract_z 
_atom_site_charge 
N1          N  0.42455940  0.39551226  0.39796150    -0.06290
N2          N  0.43726830  0.42302122  0.39899370    -0.58410
N3          N  0.37207641  0.33622581  0.42213979    -0.05970
N4          N  0.35179252  0.33576415  0.43746424    -0.60530
N5          N  0.39464362  0.34603761  0.43884301    -0.05560
N6          N  0.38984951  0.35202817  0.46548208    -0.58380
N7          N  0.40202393  0.38511142  0.38133303    -0.05240
N8          N  0.39857214  0.40511871  0.37085220    -0.60890
C9          C  0.42071799  0.42854556  0.38199964     0.95890
C10         C  0.36302075  0.34515355  0.46470328     0.95670
N11         N  0.36047413  0.28231607  0.34853494    -0.06470
N12         N  0.34098917  0.25567314  0.34539957    -0.58980
N13         N  0.37959701  0.34638433  0.32620215    -0.04590
N14         N  0.36957438  0.35951792  0.31107847    -0.60240
N15         N  0.38878558  0.33404907  0.30853877    -0.06500
N16         N  0.38462586  0.33842566  0.28063221    -0.59250
N17         N  0.35129511  0.29550982  0.36500366    -0.04230
N18         N  0.32546364  0.27850396  0.37276430    -0.60320
Mn19       Mn  0.37580503  0.34046546  0.37375670     1.18440
C20         C  0.31938384  0.25379032  0.36069672     0.97970
C21         C  0.37280438  0.35463095  0.28275960     0.98640
N22         N  0.44814274  0.34002006  0.44074865    -0.06520
N23         N  0.45336706  0.33955515  0.46906645    -0.62830
N24         N  0.48794716  0.37891991  0.38575901    -0.05320
N25         N  0.01181817  0.39847319  0.37848634    -0.63500
N26         N  0.47707844  0.39111069  0.40091178    -0.06030
N27         N  0.49393717  0.41834343  0.40210281    -0.63090
N28         N  0.45861552  0.32752563  0.42526897    -0.04920
N29         N  0.47143601  0.31868270  0.44294256    -0.63780
Mn30       Mn  0.43613837  0.36804498  0.41999840     1.10660
C31         C  0.46735776  0.32566738  0.47033231     0.99190
C32         C  0.01502010  0.42255365  0.38986334     0.99270
N33         N  0.44601961  0.33121350  0.31132442    -0.06040
N34         N  0.45540847  0.33875025  0.28419709    -0.61410
N35         N  0.43746881  0.28830180  0.36744754    -0.05350
N36         N  0.44198992  0.26831441  0.37612607    -0.58140
N37         N  0.41536376  0.27802500  0.34989425    -0.06660
N38         N  0.40414192  0.25063506  0.34686956    -0.60980
N39         N  0.46722857  0.34041449  0.33000462    -0.05650
N40         N  0.49101661  0.35423624  0.31637286    -0.58160
Mn41       Mn  0.40241638  0.30576004  0.32827494     1.20190
Mn42       Mn  0.46324109  0.33342237  0.37720949     1.10090
Cl43       Cl  0.41911273  0.33635471  0.37478855    -0.86130
C44         C  0.48358130  0.35320470  0.28796268     0.96200
C45         C  0.42104523  0.24492555  0.36324642     0.96000
N46         N  0.45751289  0.10635578  0.31261208    -0.06290
N47         N  0.46431043  0.11047316  0.28464859    -0.58410
N48         N  0.48735824  0.10249909  0.37536494    -0.05970
N49         N  0.01088259  0.10640872  0.38765858    -0.60530
N50         N  0.47472216  0.07911104  0.35975540    -0.05560
N51         N  0.48924524  0.06652426  0.35975141    -0.58380
N52         N  0.47057572  0.12999701  0.32779160    -0.05240
N53         N  0.48713319  0.15065607  0.31032290    -0.60890
C54         C  0.48256710  0.13807332  0.28344811     0.95890
C55         C  0.01174183  0.08374681  0.37750973     0.95670
N56         N  0.44365790  0.12059485  0.43926395    -0.06470
N57         N  0.44882545  0.12585112  0.46792912    -0.58980
N58         N  0.44788867  0.15474518  0.37765387    -0.04590
N59         N  0.45693977  0.18009261  0.36748503    -0.60240
N60         N  0.42389785  0.14556737  0.39085739    -0.06500
N61         N  0.41609006  0.16437891  0.38945645    -0.59250
N62         N  0.46710840  0.12922337  0.42520330    -0.04230
N63         N  0.48845461  0.14039984  0.44391016    -0.60320
Mn64       Mn  0.46905291  0.12991385  0.37662877     1.18440
C65         C  0.47686295  0.13814270  0.47050089     0.97970
C66         C  0.43681736  0.18572157  0.37466297     0.98640
N67         N  0.41692947  0.02551163  0.35568725    -0.06520
N68         N  0.42324498  0.00572360  0.35404882    -0.62830
N69         N  0.37467061  0.04198610  0.32262200    -0.05320
N70         N  0.35360129  0.02606687  0.30465900    -0.63500
N71         N  0.39835917  0.05159858  0.30896687    -0.06030
N72         N  0.39384646  0.04254335  0.28141373    -0.63090
N73         N  0.39329573  0.01646535  0.36912139    -0.04920
N74         N  0.38493190  0.49151965  0.37597279    -0.63780
Mn75       Mn  0.43702582  0.06581381  0.33395777     1.10660
C76         C  0.40539977  0.48629311  0.36986587     0.99190
C77         C  0.36588152  0.02693768  0.27895995     0.99270
N78         N  0.36442600  0.08951235  0.38790200    -0.06040
N79         N  0.34644193  0.09830113  0.38764577    -0.61410
N80         N  0.37359479  0.04077890  0.41838176    -0.05350
N81         N  0.36379074  0.01811158  0.43415786    -0.58140
N82         N  0.38397388  0.06329834  0.43536289    -0.06660
N83         N  0.38099187  0.05608337  0.46348802    -0.60980
N84         N  0.35458560  0.06657789  0.37173258    -0.05650
N85         N  0.33013204  0.05933060  0.36013510    -0.58160
Mn86       Mn  0.40357361  0.10514962  0.41433259     1.20190
Mn87       Mn  0.37371388  0.04141866  0.37058692     1.10090
Cl88       Cl  0.42097835  0.08596719  0.37401959    -0.86130
C89         C  0.32534889  0.07930674  0.36994932     0.96200
C90         C  0.36810351  0.02774276  0.46207444     0.96000
N91         N  0.05692508  0.38668250  0.18803627    -0.06290
N92         N  0.04804153  0.38365823  0.21560953    -0.58410
N93         N  0.05935395  0.35037743  0.12912167    -0.05970
N94         N  0.05256768  0.32551208  0.11837495    -0.60530
N95         N  0.08128000  0.35994295  0.14678846    -0.05560
N96         N  0.08998854  0.34193680  0.14818851    -0.58380
N97         N  0.03551112  0.37715834  0.16963873    -0.05240
N98         N  0.01212954  0.36793907  0.18388580    -0.60890
C99         C  0.01996112  0.37206067  0.21244409     0.95890
C100        C  0.07196155  0.32065223  0.13033037     0.95670
N101        N  0.05222081  0.39540535  0.05840905    -0.06470
N102        N  0.04450914  0.38975126  0.03037220    -0.58980
N103        N  0.01888843  0.40008129  0.11590791    -0.04590
N104        N  0.49285382  0.39314984  0.12252760    -0.60240
N105        N  0.03191616  0.42349427  0.10133979    -0.06500
N106        N  0.01646164  0.43505213  0.09887001    -0.59250
N107        N  0.04054359  0.37225504  0.07365025    -0.04230
N108        N  0.02486323  0.35048792  0.05616926    -0.60320
Mn109      Mn  0.03822198  0.37428611  0.12204120     1.18440
C110        C  0.02779426  0.36161336  0.02912522     0.97970
C111        C  0.49133109  0.41418755  0.10950948     0.98640
N112        N  0.14047862  0.41420937  0.14918576    -0.06520
N113        N  0.15681058  0.40373306  0.15347277    -0.62830
N114        N  0.13139364  0.46522784  0.17338080    -0.05320
N115        N  0.14144976  0.48840475  0.18934207    -0.63500
N116        N  0.11859655  0.44317379  0.19019821    -0.06030
N117        N  0.12041441  0.45110072  0.21821506    -0.63090
N118        N  0.15283331  0.43627618  0.13224099    -0.04920
N119        N  0.17788824  0.44139655  0.12511385    -0.63780
Mn120      Mn  0.09941697  0.40072109  0.16968229     1.10660
C121        C  0.18000230  0.42076938  0.13830814     0.99190
C122        C  0.13485155  0.47944116  0.21720656     0.99270
N123        N  0.09079843  0.47739644  0.10457018    -0.06040
N124        N  0.08158536  0.49496021  0.10704868    -0.61410
N125        N  0.13516356  0.46085961  0.07593912    -0.05350
N126        N  0.15647782  0.47538233  0.05834106    -0.58140
N127        N  0.11173284  0.45011242  0.06052621    -0.06660
N128        N  0.11662383  0.45614829  0.03244548    -0.60980
N129        N  0.11391703  0.48665940  0.12007066    -0.05650
N130        N  0.11711653  0.01064777  0.13222896    -0.58160
Mn131      Mn  0.07170116  0.43682248  0.08076710     1.20190
Mn132      Mn  0.13415889  0.46255158  0.12509773     1.10090
Cl133      Cl  0.08599415  0.41847461  0.12429036    -0.86130
C134        C  0.09608264  0.01452669  0.12401549     0.96200
C135        C  0.14444895  0.47164329  0.03120216     0.96000
N136        N  0.23023722  0.14504254  0.39957274    -0.06290
N137        N  0.25747643  0.16068499  0.39749886    -0.58410
N138        N  0.17097750  0.13278551  0.42745380    -0.05970
N139        N  0.15731726  0.14173317  0.44304596    -0.60530
N140        N  0.18262066  0.12250141  0.44453618    -0.05560
N141        N  0.17764626  0.12495771  0.47254971    -0.58380
N142        N  0.21782944  0.15459745  0.38250848    -0.05240
N143        N  0.23639700  0.17737937  0.36905789    -0.60890
C144        C  0.26101327  0.18076594  0.37855166     0.95890
C145        C  0.16181987  0.13704651  0.47094333     0.95670
N146        N  0.11266158  0.08510529  0.36536958    -0.06470
N147        N  0.08583802  0.07628578  0.36731718    -0.58980
N148        N  0.17048889  0.13127828  0.33120634    -0.04590
N149        N  0.17417204  0.15193071  0.31400023    -0.60240
N150        N  0.15619017  0.10716088  0.31697889    -0.06500
N151        N  0.15028717  0.11113476  0.28983203    -0.59250
N152        N  0.12724283  0.10954787  0.37873970    -0.04230
N153        N  0.11101069  0.11775783  0.39025457    -0.60320
Mn154      Mn  0.17221571  0.13278888  0.37971735     1.18440
C155        C  0.08529512  0.09686817  0.38320544     0.97970
C156        C  0.16182262  0.13913294  0.28816112     0.98640
N157        N  0.18326155  0.06427668  0.44568751    -0.06520
N158        N  0.17854374  0.05715696  0.47386685    -0.62830
N159        N  0.21986310  0.06867616  0.38409126    -0.05320
N160        N  0.23990318  0.06550701  0.37287911    -0.63500
N161        N  0.23073715  0.09095810  0.40141478    -0.06030
N162        N  0.25795492  0.10365692  0.40203982    -0.63090
N163        N  0.17209317  0.04167488  0.42877234    -0.04920
N164        N  0.15914368  0.01903419  0.44475953    -0.63780
Mn165      Mn  0.20691686  0.10584993  0.42408042     1.10660
C166        C  0.16358633  0.02871966  0.47278781     0.99190
C167        C  0.26347443  0.08780588  0.38423477     0.99270
N168        N  0.15714620  0.04981498  0.31712522    -0.06040
N169        N  0.15064662  0.03847263  0.29035565    -0.61410
N170        N  0.12862717  0.01838802  0.37789713    -0.05350
N171        N  0.11530690  0.48999355  0.39343592    -0.58140
N172        N  0.11381241  0.02758388  0.36464532    -0.06660
N173        N  0.08729766  0.00792608  0.36385274    -0.60980
N174        N  0.17220169  0.04134337  0.33143333    -0.05650
N175        N  0.17578159  0.02391631  0.31453639    -0.58160
Mn176      Mn  0.13451671  0.06723751  0.34067977     1.20190
Mn177      Mn  0.17384317  0.04236246  0.38030275     1.10090
Cl178      Cl  0.17191932  0.08701784  0.38097772    -0.86130
C179        C  0.16254549  0.02254729  0.28888575     0.96200
C180        C  0.08901774  0.48287157  0.38612979     0.96000
N181        N  0.02411888  0.11430992  0.11269547    -0.06290
N182        N  0.00485797  0.08780910  0.11281100    -0.58410
N183        N  0.04018288  0.17472754  0.08339923    -0.05970
N184        N  0.02418729  0.18118869  0.06765163    -0.60530
N185        N  0.04760040  0.15989688  0.06719571    -0.05560
N186        N  0.03702226  0.15619101  0.04038395    -0.58380
N187        N  0.01673310  0.12905108  0.12891056    -0.05240
N188        N  0.49385861  0.11016564  0.14318715    -0.60890
C189        C  0.48766096  0.08472716  0.13266398     0.95890
C190        C  0.02261980  0.16961678  0.04079891     0.95670
N191        N  0.09540031  0.22985378  0.15025782    -0.06470
N192        N  0.10718779  0.25727982  0.15262512    -0.58980
N193        N  0.04605758  0.17213127  0.18004878    -0.04590
N194        N  0.02513601  0.16047774  0.19836583    -0.60240
N195        N  0.06986711  0.18124629  0.19425150    -0.06500
N196        N  0.06553487  0.17558056  0.22261328    -0.59250
N197        N  0.07157294  0.21931180  0.13569570    -0.04230
N198        N  0.06661468  0.23919772  0.12800293    -0.60320
Mn199      Mn  0.04325100  0.17425978  0.13197311     1.18440
C200        C  0.08908722  0.26276698  0.13847785     0.97970
C201        C  0.03757931  0.16295522  0.22476828     0.98640
N202        N  0.10001327  0.15258722  0.06117785    -0.06520
N203        N  0.10203744  0.14935504  0.03264593    -0.62830
N204        N  0.09915744  0.11664178  0.11993916    -0.05320
N205        N  0.10356366  0.09647606  0.12801030    -0.63500
N206        N  0.07486404  0.10622723  0.10658646    -0.06030
N207        N  0.06212832  0.07874558  0.10521252    -0.63090
N208        N  0.12435177  0.16249916  0.07445490    -0.04920
N209        N  0.14331032  0.16569289  0.05521146    -0.63780
Mn210      Mn  0.06157208  0.13319523  0.08652246     1.10660
C211        C  0.12912244  0.15779235  0.02919520     0.99190
C212        C  0.08016314  0.07298345  0.11885516     0.99270
N213        N  0.12336173  0.17481544  0.18872410    -0.06040
N214        N  0.12784462  0.17068670  0.21649194    -0.61410
N215        N  0.15388965  0.20755839  0.12627160    -0.05350
N216        N  0.17744525  0.22401825  0.11284167    -0.58140
N217        N  0.14724827  0.22229297  0.14365419    -0.06720
N218        N  0.16599525  0.24904926  0.14223359    -0.60980
N219        N  0.12937715  0.15994176  0.17086026    -0.05650
N220        N  0.13747704  0.14507694  0.18586041    -0.58160
Mn221      Mn  0.10945394  0.20270880  0.17025173     1.20190
Mn222      Mn  0.12742691  0.16185288  0.12284215     1.10090
Cl223      Cl  0.08561562  0.16836763  0.12776342    -0.86130
C224        C  0.13664954  0.15204780  0.21416797     0.96200
C225        C  0.18460973  0.24981104  0.12289931     0.96000
N226        N  0.39097071  0.41374167  0.09950640    -0.06290
N227        N  0.41751410  0.42148728  0.10052194    -0.58410
N228        N  0.33049147  0.37283291  0.06650446    -0.05970
N229        N  0.32557334  0.35283917  0.04695425    -0.60530
N230        N  0.34432822  0.39744235  0.05394603    -0.05560
N231        N  0.34826533  0.39450436  0.02588777    -0.58380
N232        N  0.37617630  0.38962732  0.11241574    -0.05240
N233        N  0.39216574  0.38038065  0.12258514    -0.60890
C234        C  0.41786200  0.40050677  0.11506685     0.95890
C235        C  0.33637674  0.36675746  0.02159185     0.95670
N236        N  0.27716894  0.36399195  0.13889781    -0.06470
N237        N  0.25016669  0.34801582  0.14211116    -0.58980
N238        N  0.33555308  0.36929600  0.16362595    -0.04590
N239        N  0.34846846  0.35843268  0.17779164    -0.60240
N240        N  0.32706399  0.38168018  0.18213245    -0.06500
N241        N  0.33413244  0.37925315  0.20955212    -0.59250
N242        N  0.28647441  0.35210561  0.12074080    -0.04230
N243        N  0.26591321  0.32743434  0.11172575    -0.60320
Mn244      Mn  0.33149592  0.37014887  0.11551982     1.18440
C245        C  0.24339264  0.32545193  0.12500340     0.97970
C246        C  0.34754087  0.36466061  0.20633979     0.98640
N247        N  0.35262243  0.45892287  0.06037827    -0.06520
N248        N  0.35745361  0.47012343  0.03392155    -0.62830
N249        N  0.38896172  0.48542307  0.12250916    -0.05320
N250        N  0.40543080  0.00972131  0.12546622    -0.63500
N251        N  0.39848391  0.47283714  0.10575000    -0.06030
N252        N  0.42576329  0.48730649  0.10484340    -0.63090
N253        N  0.34240678  0.47066407  0.07753209    -0.04920
N254        N  0.34030281  0.49007404  0.06302394    -0.63780
Mn255      Mn  0.37148592  0.43569319  0.07949089     1.10660
C256        C  0.34941247  0.48932113  0.03574912     0.99190
C257        C  0.42938139  0.01072074  0.11874610     0.99270
N258        N  0.33158299  0.44188727  0.18839817    -0.06040
N259        N  0.33189851  0.44717332  0.21694771    -0.61410
N260        N  0.29742767  0.44682832  0.12971851    -0.05350
N261        N  0.28053609  0.45562602  0.12095395    -0.58140
N262        N  0.28346095  0.42327468  0.14415878    -0.06660
N263        N  0.25689275  0.41561318  0.14532523    -0.60980
N264        N  0.34541424  0.46537705  0.17397837    -0.05650
N265        N  0.35549940  0.48696775  0.19229314    -0.58160
Mn266      Mn  0.30448154  0.40239949  0.16425913     1.20190
Mn267      Mn  0.34342340  0.46751140  0.12593614     1.10090
Cl268      Cl  0.33742994  0.41888227  0.12108781    -0.86130
C269        C  0.34704435  0.47538308  0.21896010     0.96200
C270        C  0.25529231  0.43589196  0.13070335     0.96000
C271        C  0.46089984  0.05891058  0.13599241    -0.16600
C272        C  0.45699625  0.03508946  0.12373153    -0.31780
H273        H  0.44377892  0.06000989  0.14566620     0.12420
H274        H  0.47433598  0.03416748  0.11437685     0.13000
C275        C  0.21065654  0.27535401  0.11565012    -0.16600
C276        C  0.21583932  0.30022415  0.12594125    -0.31780
H277        H  0.22630892  0.27349505  0.10353153     0.12420
H278        H  0.20004185  0.30175942  0.13818877     0.13000
C279        C  0.15603937  0.15316771  0.26389448    -0.16600
C280        C  0.14351962  0.13937498  0.23878129    -0.31780
H281        H  0.16164410  0.17482339  0.26688558     0.12420
H282        H  0.13948463  0.11827690  0.23527094     0.13000
C283        C  0.13969994  0.15298121  0.00155278    -0.16600
C284        C  0.14842251  0.14243572  0.49542042    -0.31780
H285        H  0.12893280  0.15240203  0.98127194     0.12420
H286        H  0.12870559  0.14108344  0.49045990     0.13000
C287        C  0.15797733  0.48714950  0.00437422    -0.16600
C288        C  0.14923671  0.00985743  0.49763883    -0.31780
H289        H  0.15107834  0.47548607  0.98367215     0.12420
H290        H  0.12731785  0.99483971  0.49397061     0.13000
C291        C  0.14022989  0.49876837  0.24232300    -0.16600
C292        C  0.15664284  0.00161242  0.26506800    -0.31780
H293        H  0.13457147  0.51460982  0.23927287     0.12420
H294        H  0.16446813  0.98740955  0.26755017     0.13000
C295        C  0.09661715  0.04080107  0.12939019    -0.16600
C296        C  0.07654687  0.04497108  0.11901730    -0.31780
H297        H  0.11498850  0.05773907  0.14017158     0.12420
H298        H  0.05818810  0.02807658  0.10817730     0.13000
C299        C  0.09159816  0.29041751  0.13853234    -0.16600
C300        C  0.07185874  0.29432940  0.12629623    -0.31780
H301        H  0.10909462  0.30737880  0.15039721     0.12420
H302        H  0.05446772  0.27742776  0.11424306     0.13000
C303        C  0.22963043  0.43746851  0.12735218    -0.16600
C304        C  0.20526598  0.41833623  0.13899616    -0.31780
H305        H  0.23110014  0.45524792  0.11596893     0.12420
H306        H  0.20399486  0.40077003  0.15065623     0.13000
C307        C  0.46718806  0.41779526  0.10952946    -0.16600
C308        C  0.44270663  0.39845541  0.12001524    -0.31780
H309        H  0.46915479  0.43593641  0.09845707     0.12420
H310        H  0.44045709  0.37999215  0.13060334     0.13000
C311        C  0.49295671  0.14848989  0.49873963    -0.16600
C312        C  0.00271177  0.16606201  0.01711887    -0.31780
H313        H  0.98002503  0.14387528  0.52036461     0.12420
H314        H  0.99348380  0.17916395  0.01684402     0.13000
C315        C  0.49829141  0.15084249  0.25668030    -0.16600
C316        C  0.02210706  0.15062947  0.25174881    -0.31780
H317        H  0.48648503  0.14496980  0.23607944     0.12420
H318        H  0.02529412  0.13527101  0.26298086     0.13000
C319        C  0.35510860  0.51062087  0.01302971    -0.16600
C320        C  0.36287857  0.00898774  0.48672690    -0.31780
H321        H  0.35265338  0.52825657  0.01865905     0.12420
H322        H  0.37093452  0.99493664  0.48456018     0.13000
C323        C  0.35148466  0.00722376  0.25445414    -0.16600
C324        C  0.35198102  0.49170389  0.24641517    -0.31780
H325        H  0.32986606  0.99103380  0.25674762     0.12420
H326        H  0.34509554  0.48067066  0.26706990     0.13000
C327        C  0.03539391  0.07920893  0.37953423    -0.16600
C328        C  0.06056586  0.09904138  0.38873142    -0.31780
H329        H  0.03265756  0.06005389  0.36973818     0.12420
H330        H  0.06357515  0.11844994  0.39810298     0.13000
C331        C  0.29193086  0.09359416  0.38112901    -0.16600
C332        C  0.29799377  0.07663930  0.36647266    -0.31780
H333        H  0.30810633  0.11127039  0.39359522     0.12420
H334        H  0.28186703  0.05874821  0.35423101     0.13000
C335        C  0.00858377  0.34643532  0.00396460    -0.16600
C336        C  0.48615803  0.33021694  0.49544666    -0.31780
H337        H  0.00138660  0.32450229  0.99998535     0.12420
H338        H  0.47959348  0.31507132  0.51292299     0.13000
C339        C  0.50468239  0.36551860  0.26480436    -0.16600
C340        C  0.99901482  0.36252800  0.23607660    -0.31780
H341        H  0.52635855  0.37495781  0.27151939     0.12420
H342        H  0.97734188  0.35290328  0.22926487     0.13000
C343        C  0.40273683  0.45920991  0.37429743    -0.16600
C344        C  0.42489820  0.45635986  0.37784914    -0.31780
H345        H  0.38188003  0.44121383  0.37566683     0.12420
H346        H  0.44576498  0.47443119  0.37904436     0.13000
C347        C  0.43934157  0.21325889  0.37013545    -0.16600
C348        C  0.41733635  0.21671801  0.36652644    -0.31780
H349        H  0.46018023  0.23128773  0.36900376     0.12420
H350        H  0.39649383  0.19863703  0.36508221     0.13000
C351        C  0.06505563  0.45465868  0.38891013    -0.16600
C352        C  0.03930460  0.45021193  0.38618972    -0.31780
H353        H  0.06850244  0.43756445  0.39383103     0.12420
H354        H  0.03588617  0.46765409  0.38365346     0.13000
C355        C  0.29179428  0.22873495  0.36308720    -0.16600
C356        C  0.28851125  0.20404328  0.37052994    -0.31780
H357        H  0.27395843  0.23159790  0.36283997     0.12420
H358        H  0.30658506  0.20184885  0.37385070     0.13000
C359        C  0.35390248  0.35991221  0.48448894    -0.16600
C360        C  0.34169071  0.35541307  0.99441880    -0.31780
H361        H  0.36865720  0.38203721  0.48791833     0.12420
H362        H  0.35070887  0.36997422  0.97638348     0.13000
C363        C  0.36014305  0.35616146  0.23014497    -0.16600
C364        C  0.36167600  0.36408147  0.25838577    -0.31780
H365        H  0.36837000  0.34286468  0.22405588     0.12420
H366        H  0.35336948  0.37734731  0.26435498     0.13000
N367        N  0.41741799  0.39219502  0.90274665    -0.06290
N368        N  0.43036936  0.41972456  0.90394544    -0.58410
N369        N  0.36741449  0.32897623  0.92305669    -0.05970
N370        N  0.34523238  0.32146110  0.93929573    -0.60530
N371        N  0.38977968  0.33892437  0.94010704    -0.05560
N372        N  0.38307189  0.33805754  0.96805519    -0.58380
N373        N  0.39509824  0.38209349  0.88574663    -0.05240
N374        N  0.39218108  0.40259378  0.87525898    -0.60890
C375        C  0.41436489  0.42592312  0.88689916     0.95890
C376        C  0.35517013  0.32653399  0.96742783     0.95670
N377        N  0.36070898  0.28200516  0.84546122    -0.06470
N378        N  0.34510036  0.25452740  0.84346063    -0.58980
N379        N  0.37573800  0.34620314  0.82789450    -0.04590
N380        N  0.36601776  0.36018399  0.81386216    -0.60240
N381        N  0.38701321  0.33654730  0.80938718    -0.06500
N382        N  0.38473715  0.34366206  0.78209910    -0.59250
N383        N  0.34944805  0.29214530  0.86337526    -0.04230
N384        N  0.32567714  0.27180247  0.87336548    -0.60320
Mn385      Mn  0.37105969  0.33706484  0.87505348     1.18440
C386        C  0.32327834  0.24851300  0.86072320     0.97970
C387        C  0.37174806  0.35860705  0.78543647     0.98640
N388        N  0.44781152  0.33930528  0.93983147    -0.06520
N389        N  0.45843930  0.34197800  0.96669944    -0.62830
N390        N  0.48323974  0.38076320  0.88550904    -0.05320
N391        N  0.00705924  0.39920360  0.86774641    -0.63500
N392        N  0.47184102  0.39138449  0.90236127    -0.06030
N393        N  0.48784998  0.41869525  0.90478871    -0.63090
N394        N  0.45849413  0.32856406  0.92190473    -0.04920
N395        N  0.47644081  0.32403026  0.93622420    -0.63780
Mn396      Mn  0.43155111  0.36533912  0.92195199     1.10660
C397        C  0.47595580  0.33197945  0.96416551     0.99190
C398        C  0.00977625  0.42393130  0.87612223     0.99270
N399        N  0.44528355  0.33559251  0.80898814    -0.06040
N400        N  0.45499624  0.34119905  0.78174915    -0.61410
N401        N  0.43752301  0.29143115  0.86342503    -0.05350
N402        N  0.44108067  0.27122047  0.87336299    -0.58140
N403        N  0.41578464  0.28126856  0.84546297    -0.06660
N404        N  0.40376757  0.25379714  0.84324939    -0.60980
N405        N  0.46623304  0.34529863  0.82795545    -0.05650
N406        N  0.49021620  0.35786965  0.81446382    -0.58160
Mn407      Mn  0.40199195  0.30859133  0.82593004     1.20190
Mn408      Mn  0.46151500  0.33621094  0.87469332     1.10090
Cl409      Cl  0.41627865  0.33647400  0.87443129    -0.86130
C410        C  0.48317226  0.35539139  0.78573900     0.96200
C411        C  0.41987100  0.24789767  0.86062358     0.96000
N412        N  0.46354653  0.11327947  0.81457398    -0.06290
N413        N  0.47345306  0.11787818  0.78759096    -0.58410
N414        N  0.49498864  0.11710225  0.87881167    -0.05970
N415        N  0.01808333  0.12342307  0.89185781    -0.60530
N416        N  0.48562122  0.09323678  0.86463770    -0.05560
N417        N  0.50304514  0.08406611  0.86759814    -0.58380
N418        N  0.47283335  0.13715541  0.82897780    -0.05240
N419        N  0.48922083  0.15829356  0.81210078    -0.60890
C420        C  0.48915486  0.14604921  0.78627075     0.95890
C421        C  0.02240757  0.10223134  0.88493959     0.95670
N422        N  0.44707513  0.12932533  0.94016881    -0.06470
N423        N  0.45297656  0.13230382  0.96885809    -0.58980
N424        N  0.44675850  0.15908978  0.87659139    -0.04590
N425        N  0.45473287  0.18408588  0.86637051    -0.60240
N426        N  0.42303591  0.14905731  0.89045188    -0.06500
N427        N  0.41424151  0.16712416  0.88945600    -0.59250
N428        N  0.47013717  0.13939602  0.92514583    -0.04230
N429        N  0.49191407  0.14911053  0.94289609    -0.60320
Mn430      Mn  0.47143065  0.13871971  0.87732319     1.18440
C431        C  0.48114761  0.14508256  0.96995710     0.97970
C432        C  0.43419193  0.18869209  0.87409146     0.98640
N433        N  0.43162784  0.03611733  0.86475055    -0.06520
N434        N  0.44317290  0.02069132  0.86801862    -0.62830
N435        N  0.38322451  0.04208648  0.82835426    -0.05320
N436        N  0.36265833  0.02377054  0.81113596    -0.63500
N437        N  0.40696714  0.05306536  0.81438168    -0.06030
N438        N  0.40284719  0.04238589  0.78741857    -0.63090
N439        N  0.40776379  0.02499606  0.87829799    -0.04920
N440        N  0.38663383  0.49552703  0.87762218    -0.63780
Mn441      Mn  0.44693571  0.07389550  0.83894927     1.10660
C442        C  0.40631119  0.48904705  0.87200683     0.99190
C443        C  0.37511615  0.02438545  0.78561047     0.99270
N444        N  0.36686058  0.08963634  0.88996740    -0.06040
N445        N  0.34769646  0.09681341  0.88866207    -0.61410
N446        N  0.38162852  0.04634221  0.92486917    -0.05350
N447        N  0.37094279  0.02477163  0.94251813    -0.58140
N448        N  0.39017048  0.06974854  0.93988935    -0.06660
N449        N  0.38523100  0.06434678  0.96832403    -0.60980
N450        N  0.35819555  0.06585204  0.87556466    -0.05650
N451        N  0.33300272  0.05637034  0.86436168    -0.58160
Mn452      Mn  0.40637409  0.10985746  0.91597761     1.20190
Mn453      Mn  0.38214282  0.04443114  0.87667588     1.10090
Cl454      Cl  0.42642878  0.09189540  0.87696777    -0.86130
C455        C  0.32681561  0.07599269  0.87243767     0.96200
C456        C  0.37328741  0.03614405  0.96954594     0.96000
N457        N  0.06391654  0.38687273  0.69417809    -0.06290
N458        N  0.05985465  0.38553046  0.72296611    -0.58410
N459        N  0.05927469  0.34952377  0.63279054    -0.05970
N460        N  0.05188622  0.32515063  0.62034949    -0.60530
N461        N  0.08303925  0.35950212  0.64728157    -0.05560
N462        N  0.09248275  0.34212003  0.64475333    -0.58380
N463        N  0.04007016  0.37602556  0.67974471    -0.05240
N464        N  0.01933979  0.36724366  0.69825366    -0.60890
C465        C  0.03190875  0.37332246  0.72512646     0.95890
C466        C  0.07283063  0.32087061  0.62784757     0.95670
N467        N  0.04397437  0.39231700  0.56683776    -0.06470
N468        N  0.03261134  0.38604715  0.54014376    -0.58980
N469        N  0.01653381  0.39646023  0.63017443    -0.04590
N470        N  0.48953345  0.38493851  0.62954541    -0.60240
N471        N  0.02597168  0.41903714  0.61424145    -0.06500
N472        N  0.00766946  0.42742810  0.61371814    -0.59250
N473        N  0.03362654  0.36964656  0.58287020    -0.04230
N474        N  0.01495000  0.34778470  0.56728525    -0.60320
Mn475      Mn  0.03711080  0.37236665  0.63142447     1.18440
C476        C  0.01507478  0.35812285  0.54041648     0.97970
C477        C  0.48493367  0.40571354  0.62276015     0.98640
N478        N  0.14024888  0.41413029  0.64463524    -0.06520
N479        N  0.15636524  0.40337000  0.64706275    -0.62830
N480        N  0.13286461  0.46529257  0.67234223    -0.05320
N481        N  0.14155768  0.48859016  0.68766534    -0.63500
N482        N  0.12238800  0.44359356  0.68975038    -0.06030
N483        N  0.12435058  0.45196844  0.71760511    -0.63090
N484        N  0.15146498  0.43618254  0.62764569    -0.04920
N485        N  0.17607962  0.44115042  0.61874258    -0.63780
Mn486      Mn  0.10268930  0.40083536  0.66988169     1.10660
C487        C  0.17851040  0.42015828  0.63084496     0.99190
C488        C  0.13647397  0.48016726  0.71576569     0.99270
N489        N  0.08482924  0.47484078  0.61074926    -0.06040
N490        N  0.07595080  0.49260892  0.61343184    -0.61410
N491        N  0.12781410  0.46038832  0.57523439    -0.05350
N492        N  0.14754070  0.47673392  0.55669348    -0.58140
N493        N  0.10313986  0.44964847  0.56219611    -0.06660
N494        N  0.10591565  0.45783810  0.53452429    -0.60980
N495        N  0.10952768  0.48515633  0.62325291    -0.05650
N496        N  0.11668782  0.00805790  0.64709944    -0.58160
Mn497      Mn  0.06437780  0.43409567  0.58798623     1.20190
Mn498      Mn  0.13133243  0.46198431  0.62421073     1.10090
Cl499      Cl  0.08400356  0.41724517  0.62805764    -0.86130
C500        C  0.09675515  0.01346087  0.63839270     0.96200
C501        C  0.13359100  0.47460371  0.53125294     0.96000
N502        N  0.22666115  0.14629820  0.89411649    -0.06290
N503        N  0.25287609  0.16666580  0.89257020    -0.58410
N504        N  0.16774265  0.12812165  0.92860628    -0.05970
N505        N  0.15631966  0.13795155  0.94668272    -0.60530
N506        N  0.18346296  0.12087689  0.94331415    -0.05560
N507        N  0.18315669  0.12584823  0.97185136    -0.58380
N508        N  0.21037357  0.15327452  0.88008127    -0.05240
N509        N  0.22496338  0.17854191  0.86923906    -0.60890
C510        C  0.25139156  0.18649941  0.87682985     0.95890
C511        C  0.16605136  0.13640859  0.97355045     0.95670
N512        N  0.10822681  0.07462943  0.86738911    -0.06470
N513        N  0.08098416  0.06293515  0.86792931    -0.58980
N514        N  0.16167657  0.12422714  0.83165037    -0.04590
N515        N  0.16527649  0.14374317  0.81271906    -0.60240
N516        N  0.15055718  0.09978964  0.81809832    -0.06500
N517        N  0.14701293  0.10216197  0.78977133    -0.59250
N518        N  0.12021847  0.09895634  0.88117977    -0.04230
N519        N  0.10146321  0.10443782  0.89133562    -0.60320
Mn520      Mn  0.16509287  0.12673539  0.88033674     1.18440
C521        C  0.07711994  0.08162718  0.88315938     0.97970
C522        C  0.15635169  0.12956283  0.78666683     0.98640
N523        N  0.18973037  0.06650317  0.94321543    -0.06520
N524        N  0.18861326  0.06192018  0.97193336    -0.62830
N525        N  0.22192669  0.06913831  0.88002444    -0.05320
N526        N  0.24166693  0.06475125  0.87025347    -0.63500
N527        N  0.23313753  0.09317462  0.89454623    -0.06030
N528        N  0.26042914  0.10566375  0.89463314    -0.63090
N529        N  0.17817257  0.04259433  0.92841737    -0.04920
N530        N  0.16888149  0.02143981  0.94669106    -0.63780
Mn531      Mn  0.20880204  0.10697685  0.91952499     1.10660
C532        C  0.17555653  0.03370005  0.97377644     0.99190
C533        C  0.26553990  0.08793884  0.87935063     0.99270
N534        N  0.15684589  0.04697337  0.81754911    -0.06040
N535        N  0.15271408  0.03938692  0.78951435    -0.61410
N536        N  0.13043568  0.01379111  0.87988599    -0.05350
N537        N  0.10880542  0.48932072  0.89203239    -0.58140
N538        N  0.11480391  0.02201418  0.86670830    -0.06660
N539        N  0.08840132  0.00251037  0.86766551    -0.60980
N540        N  0.17229082  0.03843029  0.83067627    -0.05650
N541        N  0.17830245  0.02409585  0.81165088    -0.58160
Mn542      Mn  0.13242461  0.06075958  0.84219411     1.20190
Mn543      Mn  0.17611587  0.04046871  0.87967954     1.10090
Cl544      Cl  0.17074627  0.08376545  0.88037856    -0.86130
C545        C  0.16635438  0.02544684  0.78598138     0.96200
C546        C  0.08354864  0.48377527  0.88263324     0.96000
N547        N  0.02859569  0.11378198  0.60796483    -0.06290
N548        N  0.00969106  0.08712554  0.60897488    -0.58410
N549        N  0.04798748  0.17234175  0.57320354    -0.05970
N550        N  0.03280632  0.17632217  0.55330416    -0.60530
N551        N  0.05828553  0.15787231  0.56128410    -0.05560
N552        N  0.05107720  0.15264525  0.53314450    -0.58380
N553        N  0.01944898  0.12899175  0.62017849    -0.05240
N554        N  0.49463791  0.11247582  0.62958820    -0.60890
C555        C  0.48905567  0.08649691  0.62245335     0.95890
C556        C  0.03541572  0.16434159  0.52832004     0.95670
N557        N  0.09555532  0.23063325  0.64332532    -0.06470
N558        N  0.10718006  0.25794649  0.64560051    -0.58980
N559        N  0.04205058  0.17336767  0.66992541    -0.04590
N560        N  0.01864973  0.15987613  0.68436230    -0.60240
N561        N  0.06358384  0.18410058  0.68823785    -0.06500
N562        N  0.05499874  0.17842835  0.71579478    -0.59250
N563        N  0.07357859  0.22006100  0.62560798    -0.04230
N564        N  0.06959840  0.24015734  0.61595271    -0.60320
Mn565      Mn  0.04549877  0.17431045  0.62195998     1.18440
C566        C  0.09099354  0.26366160  0.62837224     0.97970
C567        C  0.02687028  0.16345286  0.71282266     0.98640
N568        N  0.11128033  0.15093767  0.57022630    -0.06520
N569        N  0.11744741  0.14669035  0.54348618    -0.62830
N570        N  0.10181123  0.11702823  0.63299686    -0.05320
N571        N  0.10495492  0.09679880  0.64389211    -0.63500
N572        N  0.07955805  0.10648543  0.61581350    -0.06030
N573        N  0.06692515  0.07905177  0.61487633    -0.63090
N574        N  0.13346968  0.16154029  0.58755442    -0.04920
N575        N  0.15513355  0.16461929  0.57294813    -0.63780
Mn576      Mn  0.06950388  0.13231445  0.58838356     1.10660
C577        C  0.14486311  0.15555348  0.54545800     0.99190
C578        C  0.08276587  0.07324959  0.63257660     0.99270
N579        N  0.11781467  0.17893134  0.69653310    -0.06040
N580        N  0.12160068  0.17922769  0.72541961    -0.61410
N581        N  0.15637881  0.20845866  0.63707137    -0.05350
N582        N  0.18138349  0.22429174  0.62614318    -0.58140
N583        N  0.14775120  0.22394792  0.64993583    -0.06720
N584        N  0.16669918  0.25065425  0.64791128    -0.60980
N585        N  0.12642573  0.16360379  0.68336046    -0.05650
N586        N  0.13612988  0.15313338  0.70285449    -0.58160
Mn587      Mn  0.10638147  0.20497813  0.67039068     1.20190
Mn588      Mn  0.13008023  0.16265091  0.63543250     1.10090
Cl589      Cl  0.08807767  0.16892727  0.62884066    -0.86130
C590        C  0.13294666  0.16293441  0.72896609     0.96200
C591        C  0.18751671  0.25054950  0.63299190     0.96000
N592        N  0.39119191  0.42167654  0.59612934    -0.06290
N593        N  0.41826736  0.43313363  0.59489325    -0.58410
N594        N  0.32850266  0.37484670  0.57039906    -0.05970
N595        N  0.32054315  0.35273889  0.55307238    -0.60530
N596        N  0.34084767  0.39792912  0.55497849    -0.05560
N597        N  0.34174994  0.39173955  0.52698394    -0.58380
N598        N  0.38006514  0.39882325  0.61167369    -0.05240
N599        N  0.39977246  0.39414071  0.62139987    -0.60890
C600        C  0.42343752  0.41596667  0.61066930     0.95890
C601        C  0.32863784  0.36346947  0.52598404     0.95670
N602        N  0.27914744  0.36708330  0.64327254    -0.06470
N603        N  0.25242957  0.35020719  0.64751322    -0.58980
N604        N  0.34102497  0.37839512  0.66614956    -0.04590
N605        N  0.35477440  0.36864897  0.68059838    -0.60240
N606        N  0.33089953  0.38947490  0.68433537    -0.06500
N607        N  0.33773691  0.38730045  0.71190682    -0.59250
N608        N  0.28914059  0.35496448  0.62641215    -0.04230
N609        N  0.26924548  0.32927451  0.61914811    -0.60320
Mn610      Mn  0.33442348  0.37597592  0.61857360     1.18440
C611        C  0.24644405  0.32683083  0.63232763     0.97970
C612        C  0.35272570  0.37430051  0.70901648     0.98640
N613        N  0.34574881  0.45856919  0.55882886    -0.06520
N614        N  0.34883120  0.46812368  0.53178373    -0.62830
N615        N  0.38513598  0.48945057  0.61941284    -0.05320
N616        N  0.40574225  0.01189695  0.62302197    -0.63500
N617        N  0.39489313  0.47788861  0.60151325    -0.06030
N618        N  0.42221416  0.49238958  0.60161703    -0.63090
N619        N  0.33699811  0.47153389  0.57618613    -0.04920
N620        N  0.33408731  0.49017891  0.56106463    -0.63780
Mn621      Mn  0.36788861  0.43890236  0.57715499     1.10660
C622        C  0.34120801  0.48758171  0.53332745     0.99190
C623        C  0.42841423  0.01342583  0.61078717     0.99270
N624        N  0.33201554  0.44772864  0.68837114    -0.06040
N625        N  0.33378778  0.45333440  0.71695843    -0.61410
N626        N  0.29586802  0.44911758  0.62974581    -0.05350
N627        N  0.27875082  0.45672607  0.61905295    -0.58140
N628        N  0.28239378  0.42582350  0.64465391    -0.06660
N629        N  0.25550196  0.41710116  0.64423974    -0.60980
N630        N  0.34475700  0.47096825  0.67339487    -0.05650
N631        N  0.35554594  0.49286079  0.69155876    -0.58160
Mn632      Mn  0.30558181  0.40720425  0.66599598     1.20190
Mn633      Mn  0.34068153  0.47079561  0.62481380     1.10090
Cl634      Cl  0.33685994  0.42307936  0.62150947    -0.86130
C635        C  0.34862880  0.48153124  0.71866072     0.96200
C636        C  0.25367545  0.43662239  0.62808085     0.96000
C637        C  0.46180609  0.06146842  0.62576613    -0.16600
C638        C  0.45657686  0.03723137  0.61367673    -0.31780
H639        H  0.44534015  0.06353544  0.63574634     0.12420
H640        H  0.47297309  0.03548156  0.60305548     0.13000
C641        C  0.21424243  0.27581862  0.62629124    -0.16600
C642        C  0.21904721  0.30122854  0.63405318    -0.31780
H643        H  0.23049180  0.27340594  0.61630029     0.12420
H644        H  0.20274160  0.30326736  0.64447940     0.13000
C645        C  0.15265148  0.14061499  0.75884955    -0.16600
C646        C  0.14188557  0.15735967  0.75756431    -0.31780
H647        H  0.15478071  0.13117027  0.73874324     0.12420
H648        H  0.13809598  0.16557121  0.77765398     0.13000
C649        C  0.16010544  0.15083070  0.52215955    -0.16600
C650        C  0.15905567  0.14543028  0.00122306    -0.31780
H651        H  0.18057251  0.15392119  0.52692616     0.12420
H652        H  0.16872132  0.14436956  0.02166101     0.13000
C653        C  0.14576661  0.49113975  0.50417150    -0.16600
C654        C  0.16839878  0.01817617  0.00194732    -0.31780
H655        H  0.13603777  0.48086944  0.48334882     0.12420
H656        H  0.17504618  0.03003307  0.02253865     0.13000
C657        C  0.14123697  0.49972246  0.74035064    -0.16600
C658        C  0.16303955  0.00931689  0.75881018    -0.31780
H659        H  0.13898320  0.51761955  0.73576965     0.12420
H660        H  0.17066258  0.02097466  0.73861793     0.13000
C661        C  0.09810617  0.04011128  0.64466852    -0.16600
C662        C  0.07870721  0.04506826  0.63382963    -0.31780
H663        H  0.11648036  0.05660910  0.65588152     0.12420
H664        H  0.06054060  0.02849538  0.62237716     0.13000
C665        C  0.09351717  0.29125872  0.62900875    -0.16600
C666        C  0.07267227  0.29499004  0.62045950    -0.31780
H667        H  0.11172828  0.30816440  0.64005568     0.12420
H668        H  0.05419099  0.27803655  0.60986995     0.13000
C669        C  0.22819157  0.43767651  0.62241149    -0.16600
C670        C  0.20342184  0.41751299  0.63131354    -0.31780
H671        H  0.23015862  0.45612866  0.61209685     0.12420
H672        H  0.20171544  0.39928303  0.64192348     0.13000
C673        C  0.45749747  0.40282856  0.62602309    -0.16600
C674        C  0.45169045  0.42082157  0.61346104    -0.31780
H675        H  0.44119829  0.38424560  0.63639754     0.12420
H676        H  0.46802621  0.43908549  0.60266478     0.13000
C677        C  0.49825515  0.14835818  0.99602308    -0.16600
C678        C  0.01910119  0.15896610  0.50066449    -0.31780
H679        H  0.00581875  0.13368176  0.99643217     0.12420
H680        H  0.02984128  0.16051346  0.48033492     0.13000
C681        C  0.50886016  0.16117975  0.76254653    -0.16600
C682        C  0.00715741  0.14900030  0.73657119    -0.31780
H683        H  0.52525667  0.18263475  0.76665408     0.12420
H684        H  0.98990329  0.12811326  0.73173591     0.13000
C685        C  0.34680474  0.50796564  0.50974853    -0.16600
C686        C  0.36344370  0.01943584  0.99672490    -0.31780
H687        H  0.34597545  0.52665604  0.51471877     0.12420
H688        H  0.36501472  0.03001046  0.01751062     0.13000
C689        C  0.36110131  0.00378954  0.76140869    -0.16600
C690        C  0.35481242  0.49756965  0.74673608    -0.31780
H691        H  0.33960114  0.98738806  0.76399033     0.12420
H692        H  0.34706287  0.48595319  0.76695455     0.13000
C693        C  0.04780557  0.10186407  0.89234006    -0.16600
C694        C  0.05015985  0.07988820  0.88434646    -0.31780
H695        H  0.06542014  0.12064983  0.90167945     0.12420
H696        H  0.03242199  0.06122521  0.87494339     0.13000
C697        C  0.29374854  0.09225971  0.87770115    -0.16600
C698        C  0.29911203  0.07272769  0.86788886    -0.31780
H699        H  0.31046367  0.11154383  0.88735624     0.12420
H700        H  0.28256997  0.05329147  0.85833966     0.13000
C701        C  0.99116635  0.34453321  0.51995054    -0.16600
C702        C  0.49947455  0.33994566  0.98465339    -0.31780
H703        H  0.97341616  0.34672404  0.52504240     0.12420
H704        H  0.51995894  0.34770045  0.97548680     0.13000
C705        C  0.50451469  0.36468149  0.76256495    -0.16600
C706        C  0.01680022  0.36602913  0.75327600    -0.31780
H707        H  0.52623171  0.37601019  0.76946271     0.12420
H708        H  0.02867523  0.37176534  0.77381445     0.13000
C709        C  0.40101886  0.46038415  0.87469087    -0.16600
C710        C  0.42100472  0.45476778  0.88142712    -0.31780
H711        H  0.37952646  0.44346200  0.87349877     0.12420
H712        H  0.44219845  0.47173371  0.88516224     0.13000
C713        C  0.43672988  0.21611612  0.87069826    -0.16600
C714        C  0.41515363  0.21958044  0.86493774    -0.31780
H715        H  0.45764176  0.23416235  0.87106959     0.12420
H716        H  0.39441502  0.20161926  0.86177075     0.13000
C717        C  0.05905970  0.45576464  0.88263997    -0.16600
C718        C  0.03453890  0.45113980  0.87264738    -0.31780
H719        H  0.06104363  0.43878683  0.89158891     0.12420
H720        H  0.03197015  0.46833239  0.86564392     0.13000
C721        C  0.30045453  0.21990187  0.86617071    -0.16600
C722        C  0.27481185  0.21478185  0.87163835    -0.31780
H723        H  0.30442691  0.20275076  0.86430614     0.12420
H724        H  0.27045652  0.23171193  0.87076105     0.13000
C725        C  0.34064716  0.33077533  0.99220117    -0.16600
C726        C  0.33149134  0.34737544  0.50149169    -0.31780
H727        H  0.33368904  0.31644258  0.01046696     0.12420
H728        H  0.31800718  0.32484128  0.50038366     0.13000
C729        C  0.36459946  0.36552286  0.73304368    -0.16600
C730        C  0.36209509  0.36980851  0.76157710    -0.31780
H731        H  0.37504101  0.35429066  0.72684553     0.12420
H732        H  0.35148140  0.38084430  0.76782938     0.13000
N733        N  0.42002789  0.89343337  0.39226006    -0.06290
N734        N  0.43189468  0.92080699  0.39196244    -0.58410
N735        N  0.36906233  0.83321031  0.41558293    -0.05970
N736        N  0.34640341  0.82949697  0.42856167    -0.60530
N737        N  0.39034160  0.84458385  0.43429381    -0.05560
N738        N  0.38219259  0.84823724  0.46034800    -0.58380
N739        N  0.39842178  0.88169035  0.37418312    -0.05240
N740        N  0.39470688  0.90081577  0.36149651    -0.60890
C741        C  0.41590958  0.92499483  0.37274607     0.95890
C742        C  0.35467253  0.83831893  0.45660672     0.95670
N743        N  0.36654792  0.77946319  0.34678477    -0.06470
N744        N  0.35116687  0.75195939  0.34710247    -0.58980
N745        N  0.38139808  0.84131697  0.32013547    -0.04590
N746        N  0.37194185  0.85338371  0.30234474    -0.60240
N747        N  0.39369692  0.83036153  0.30522180    -0.06500
N748        N  0.39257969  0.83468675  0.27665337    -0.59250
N749        N  0.35420532  0.79081650  0.36099977    -0.04230
N750        N  0.32992554  0.77126240  0.37078042    -0.60320
Mn751      Mn  0.37507877  0.83642640  0.36766945     1.18440
C752        C  0.32837713  0.74719101  0.36190947     0.97970
C753        C  0.37909170  0.84927025  0.27528643     0.98640
N754        N  0.44806571  0.84493025  0.44241711    -0.06520
N755        N  0.45387211  0.84745118  0.47098030    -0.62830
N756        N  0.48741230  0.88272394  0.38677655    -0.05320
N757        N  0.01242384  0.90218597  0.37765484    -0.63500
N758        N  0.47478182  0.89413242  0.40011766    -0.06030
N759        N  0.49000023  0.92159488  0.39959292    -0.63090
N760        N  0.46114590  0.83400589  0.42877659    -0.04920
N761        N  0.47648722  0.82954293  0.44786728    -0.63780
Mn762      Mn  0.43321338  0.86914620  0.41794039     1.10660
C763        C  0.47128746  0.83746723  0.47414991     0.99190
C764        C  0.01351694  0.92623306  0.38568316     0.99270
N765        N  0.45190920  0.83167600  0.31353180    -0.06040
N766        N  0.46166272  0.83809048  0.28648721    -0.61410
N767        N  0.44345735  0.79149791  0.37271530    -0.05350
N768        N  0.44781743  0.77213645  0.38399082    -0.58140
N769        N  0.42234199  0.78006814  0.35381837    -0.06660
N770        N  0.41153776  0.75273566  0.35243402    -0.60980
N771        N  0.47261701  0.84258729  0.33288055    -0.05650
N772        N  0.49666797  0.85660374  0.31960396    -0.58160
Mn773      Mn  0.40851252  0.80497645  0.32870458     1.20190
Mn774      Mn  0.46661178  0.83732119  0.38050010     1.10090
Cl775      Cl  0.42063580  0.83648709  0.37395173    -0.86130
C776        C  0.48964669  0.85375641  0.29076300     0.96200
C777        C  0.42763442  0.74806905  0.37116652     0.96000
N778        N  0.46484354  0.61041007  0.31842112    -0.06290
N779        N  0.47524261  0.61647941  0.29180109    -0.58410
N780        N  0.48814053  0.60177219  0.38327090    -0.05970
N781        N  0.01060265  0.60281164  0.39511591    -0.60530
N782        N  0.47673457  0.57947833  0.36598821    -0.05560
N783        N  0.49029506  0.56596718  0.36759563    -0.58380
N784        N  0.47605510  0.63293698  0.33539513    -0.05240
N785        N  0.49456771  0.65479459  0.32058822    -0.60890
C786        C  0.49353327  0.64421363  0.29333185     0.95890
C787        C  0.01093984  0.57993937  0.38469907     0.95670
N788        N  0.43991311  0.61724639  0.44326261    -0.06470
N789        N  0.44321755  0.62231616  0.47211214    -0.58980
N790        N  0.44987837  0.65493915  0.38353524    -0.04590
N791        N  0.46081689  0.68132428  0.37602393    -0.60240
N792        N  0.42489878  0.64545655  0.39446154    -0.06500
N793        N  0.41836633  0.66524390  0.39421496    -0.59250
N794        N  0.46428508  0.62628713  0.43111344    -0.04230
N795        N  0.48438755  0.63768132  0.45114708    -0.60320
Mn796      Mn  0.47024169  0.62957391  0.38344775     1.18440
C797        C  0.47112832  0.63507957  0.47661843     0.97970
C798        C  0.44092625  0.68742512  0.38252747     0.98640
N799        N  0.41979882  0.52708852  0.35604895    -0.06520
N800        N  0.42737546  0.50820926  0.35728801    -0.62830
N801        N  0.38077336  0.54545301  0.31924187    -0.05320
N802        N  0.36181462  0.53150178  0.29840484    -0.63500
N803        N  0.40581189  0.55674849  0.30824247    -0.06030
N804        N  0.40441503  0.55133476  0.27975917    -0.63090
N805        N  0.39511107  0.51736542  0.36723996    -0.04920
N806        N  0.38267273  0.99022788  0.37672189    -0.63780
Mn807      Mn  0.44188275  0.56855873  0.33676280     1.10660
C808        C  0.40171934  0.98399237  0.36740968     0.99190
C809        C  0.37695787  0.53592979  0.27383980     0.99270
N810        N  0.36505006  0.58951901  0.38510830    -0.06040
N811        N  0.34682648  0.59799466  0.38468899    -0.61410
N812        N  0.37115276  0.53876644  0.41534923    -0.05350
N813        N  0.35983051  0.51540522  0.43021402    -0.58140
N814        N  0.38043412  0.56054570  0.43333055    -0.06660
N815        N  0.37515440  0.55214534  0.46103136    -0.60980
N816        N  0.35616367  0.56739360  0.36774701    -0.05650
N817        N  0.33205565  0.56040200  0.35531677    -0.58160
Mn818      Mn  0.40203889  0.60349400  0.41486464     1.20190
Mn819      Mn  0.37528099  0.54201546  0.36734090     1.10090
Cl820      Cl  0.42231555  0.58628405  0.37566402    -0.86130
C821        C  0.32657152  0.57974299  0.36573531     0.96200
C822        C  0.36214080  0.52385964  0.45852492     0.96000
N823        N  0.06141596  0.88528442  0.18918751    -0.06290
N824        N  0.05374717  0.88265299  0.21717765    -0.58410
N825        N  0.06345054  0.85060499  0.12817760    -0.05970
N826        N  0.05710946  0.82640099  0.11616997    -0.60530
N827        N  0.08593505  0.86058338  0.14494514    -0.05560
N828        N  0.09559137  0.84327109  0.14442749    -0.58380
N829        N  0.03925490  0.87420890  0.17181883    -0.05240
N830        N  0.01641148  0.86425301  0.18712219    -0.60890
C831        C  0.02548324  0.86956766  0.21525786     0.95890
C832        C  0.07737396  0.82216772  0.12629306     0.95670
N833        N  0.05074190  0.89378213  0.06072734    -0.06470
N834        N  0.04337944  0.88782130  0.03270158    -0.58980
N835        N  0.01878564  0.89490455  0.12140575    -0.04590
N836        N  0.49586132  0.89695920  0.12717530    -0.60240
N837        N  0.02878219  0.91834621  0.10699621    -0.06500
N838        N  0.01186669  0.92829586  0.10914103    -0.59250
N839        N  0.04106927  0.87066261  0.07578652    -0.04230
N840        N  0.02695594  0.84856015  0.05826116    -0.60320
Mn841      Mn  0.04039194  0.87201741  0.12410720     1.18440
C842        C  0.02884292  0.85954591  0.03133946     0.97970
C843        C  0.49478899  0.91897994  0.11630070     0.98640
N844        N  0.14250144  0.91680717  0.14548225    -0.06520
N845        N  0.15885646  0.90626090  0.14756274    -0.62830
N846        N  0.13179515  0.96598331  0.17203081    -0.05320
N847        N  0.14123545  0.98912505  0.18786489    -0.63500
N848        N  0.12094069  0.94397570  0.18907841    -0.06030
N849        N  0.12352766  0.95204136  0.21716784    -0.63090
N850        N  0.15356178  0.93891388  0.12851575    -0.04920
N851        N  0.17807536  0.94401054  0.11913699    -0.63780
Mn852      Mn  0.10296186  0.90148033  0.16840918     1.10660
C853        C  0.18084395  0.92321139  0.13108187     0.99190
C854        C  0.13637060  0.98035465  0.21588457     0.99270
N855        N  0.08595364  0.97534851  0.10647304    -0.06040
N856        N  0.07646581  0.99274753  0.10770709    -0.61410
N857        N  0.13177911  0.96269352  0.07441241    -0.05350
N858        N  0.15220046  0.97830655  0.05621649    -0.58140
N859        N  0.10772041  0.95127213  0.06007296    -0.06660
N860        N  0.11140204  0.95805590  0.03201708    -0.60980
N861        N  0.10985860  0.98595379  0.12080621    -0.05650
N862        N  0.12101853  0.51055070  0.13336671    -0.58160
Mn863      Mn  0.06803805  0.93485717  0.08302156     1.20190
Mn864      Mn  0.13268972  0.96376516  0.12367229     1.10090
Cl865      Cl  0.08621439  0.91804644  0.12467550    -0.86130
C866        C  0.10067762  0.51539138  0.12516173     0.96200
C867        C  0.13911016  0.97473965  0.02975325     0.96000
N868        N  0.22958177  0.64734127  0.39474775    -0.06290
N869        N  0.25603584  0.66704857  0.39305337    -0.58410
N870        N  0.17298839  0.63332794  0.43004445    -0.05970
N871        N  0.16307071  0.64465138  0.44823318    -0.60530
N872        N  0.18752866  0.62466803  0.44475145    -0.05560
N873        N  0.18812481  0.63021121  0.47320458    -0.58380
N874        N  0.21396998  0.65459345  0.37978885    -0.05240
N875        N  0.22920975  0.67945178  0.36827155    -0.60890
C876        C  0.25535760  0.68679868  0.37634411     0.95890
C877        C  0.17273600  0.64261235  0.47501216     0.95670
N878        N  0.10996323  0.57978332  0.37286844    -0.06470
N879        N  0.08318269  0.57005443  0.37696696    -0.58980
N880        N  0.16328299  0.62525461  0.33254065    -0.04590
N881        N  0.16814140  0.64407659  0.31211660    -0.60240
N882        N  0.15006816  0.60004525  0.32054492    -0.06500
N883        N  0.14640708  0.60112509  0.29197615    -0.59250
N884        N  0.12454685  0.60474251  0.38512725    -0.04230
N885        N  0.10847894  0.61242453  0.39799609    -0.60320
Mn886      Mn  0.16886579  0.63011445  0.38152981     1.18440
C887        C  0.08280227  0.59065778  0.39301435     0.97970
C888        C  0.15778478  0.62855587  0.28689300     0.98640
N889        N  0.19039578  0.56823323  0.44604973    -0.06520
N890        N  0.18820700  0.56335284  0.47481382    -0.62830
N891        N  0.22160868  0.56980952  0.38156899    -0.05320
N892        N  0.24114344  0.56604130  0.36994216    -0.63500
N893        N  0.23323787  0.59369766  0.39629777    -0.06030
N894        N  0.26041208  0.60679660  0.39474041    -0.63090
N895        N  0.17830644  0.54436509  0.43120686    -0.04920
N896        N  0.16747631  0.52304514  0.44929811    -0.63780
Mn897      Mn  0.21060036  0.60858909  0.42131828     1.10660
C898        C  0.17377644  0.53497813  0.47647320     0.99190
C899        C  0.26515986  0.58959211  0.37824368     0.99270
N900        N  0.15320724  0.54515384  0.32118484    -0.06040
N901        N  0.14613373  0.53392455  0.29440658    -0.61410
N902        N  0.13015920  0.51604195  0.38465264    -0.05350
N903        N  0.11268951  0.99247687  0.38637408    -0.58140
N904        N  0.11399535  0.52419671  0.37255241    -0.06660
N905        N  0.08785864  0.50390217  0.37282224    -0.60980
N906        N  0.16992255  0.53805115  0.33414225    -0.05650
N907        N  0.17402310  0.52147726  0.31641405    -0.58160
Mn908      Mn  0.13129606  0.56217747  0.34658551     1.20190
Mn909      Mn  0.17560874  0.54179947  0.38273951     1.10090
Cl910      Cl  0.17166478  0.58566679  0.38290440    -0.86130
C911        C  0.15940497  0.51939928  0.29155696     0.96200
C912        C  0.08707690  0.98634700  0.37772292     0.96000
N913        N  0.02775533  0.61374023  0.11055507    -0.06290
N914        N  0.00891889  0.58713101  0.11293521    -0.58410
N915        N  0.04808702  0.67367547  0.07675192    -0.05970
N916        N  0.03567058  0.68134438  0.05710155    -0.60530
N917        N  0.05710205  0.65857633  0.06381753    -0.05560
N918        N  0.05186160  0.65639252  0.03528179    -0.58380
N919        N  0.01951450  0.62935224  0.12364941    -0.05240
N920        N  0.49881503  0.60944163  0.13573027    -0.60890
C921        C  0.49394491  0.58381196  0.12857326     0.95890
C922        C  0.03887858  0.67091523  0.03128761     0.95670
N923        N  0.09751125  0.73029387  0.14559985    -0.06470
N924        N  0.10982641  0.75767835  0.14781809    -0.58980
N925        N  0.04457408  0.67365219  0.17351331    -0.04590
N926        N  0.02176936  0.66148865  0.18906114    -0.60240
N927        N  0.06677673  0.68380142  0.19079271    -0.06500
N928        N  0.05931011  0.67905024  0.21878676    -0.59250
N929        N  0.07504080  0.72012640  0.12876081    -0.04230
N930        N  0.07143716  0.74052973  0.11945663    -0.60320
Mn931      Mn  0.04638851  0.67467469  0.12537769     1.18440
C932        C  0.09353629  0.76381098  0.13130270     0.97970
C933        C  0.03109044  0.66524099  0.21716453     0.98640
N934        N  0.10804757  0.64981732  0.06703300    -0.06520
N935        N  0.11193329  0.64721312  0.03885349    -0.62830
N936        N  0.10180451  0.61587218  0.12933531    -0.05320
N937        N  0.10553503  0.59552347  0.13844940    -0.63500
N938        N  0.07857655  0.60556544  0.11378175    -0.06030
N939        N  0.06589221  0.57815930  0.11217201    -0.63090
N940        N  0.13147331  0.65973817  0.08220576    -0.04920
N941        N  0.15176786  0.66345183  0.06440530    -0.63780
Mn942      Mn  0.06773343  0.63178196  0.08848043     1.10660
C943        C  0.13917847  0.65580423  0.03735340     0.99190
C944        C  0.08273749  0.57216349  0.12779800     0.99270
N945        N  0.12061894  0.67735457  0.19438122    -0.06040
N946        N  0.12488914  0.67759558  0.22309560    -0.61410
N947        N  0.15692266  0.70717660  0.13347548    -0.05350
N948        N  0.18165642  0.72342733  0.12211194    -0.58140
N949        N  0.14868035  0.72229030  0.14791815    -0.06720
N950        N  0.16745918  0.74901782  0.14646656    -0.60980
N951        N  0.12916121  0.66223635  0.18050522    -0.05650
N952        N  0.13928388  0.65176685  0.19972556    -0.58160
Mn953      Mn  0.10860962  0.70383069  0.17051885     1.20190
Mn954      Mn  0.13070600  0.66126619  0.13147703     1.10090
Cl955      Cl  0.08860829  0.66811021  0.12894040    -0.86130
C956        C  0.13641386  0.66150686  0.22617821     0.96200
C957        C  0.18782267  0.74944409  0.13030179     0.96000
N958        N  0.39307647  0.91464822  0.10685315    -0.06290
N959        N  0.41975785  0.92307453  0.10734911    -0.58410
N960        N  0.33242928  0.86717253  0.07829291    -0.05970
N961        N  0.32628435  0.84407147  0.06356652    -0.60530
N962        N  0.34556514  0.88901740  0.06119993    -0.05560
N963        N  0.34792404  0.88096546  0.03448504    -0.58380
N964        N  0.37943216  0.89281389  0.12363894    -0.05240
N965        N  0.39649852  0.88579086  0.13590604    -0.60890
C966        C  0.42158395  0.90501668  0.12567797     0.95890
C967        C  0.33541242  0.85288734  0.03610702     0.95670
N968        N  0.27829962  0.86589029  0.14407957    -0.06470
N969        N  0.25118414  0.84953049  0.14614789    -0.58980
N970        N  0.33801200  0.87810434  0.17442193    -0.04590
N971        N  0.35028164  0.86919325  0.19263431    -0.60240
N972        N  0.32761851  0.89126483  0.18883280    -0.06500
N973        N  0.33258408  0.89129686  0.21752483    -0.59250
N974        N  0.28907796  0.85278952  0.13024733    -0.04230
N975        N  0.26949345  0.82711231  0.12287141    -0.60320
Mn976      Mn  0.33434690  0.87202378  0.12660729     1.18440
C977        C  0.24598619  0.82555168  0.13272774     0.97970
C978        C  0.34687615  0.87752099  0.21945414     0.98640
N979        N  0.35115494  0.94904095  0.05434444    -0.06520
N980        N  0.35586919  0.95589654  0.02633590    -0.62830
N981        N  0.38624169  0.98548800  0.11417946    -0.05320
N982        N  0.40987766  0.50913600  0.13321920    -0.63500
N983        N  0.39760660  0.97256912  0.10131972    -0.06030
N984        N  0.42490976  0.98776598  0.10351355    -0.63090
N985        N  0.34062216  0.96282156  0.06729657    -0.04920
N986        N  0.33867644  0.97977605  0.04837787    -0.63780
Mn987      Mn  0.37193135  0.93129315  0.08032281     1.10660
C988        C  0.34785657  0.97487663  0.02283408     0.99190
C989        C  0.43266189  0.50973641  0.12211995     0.99270
N990        N  0.33095933  0.95054731  0.18158502    -0.06040
N991        N  0.33554494  0.96000137  0.20914953    -0.61410
N992        N  0.29586418  0.94554896  0.11911435    -0.05350
N993        N  0.27899094  0.95345628  0.10808867    -0.58140
N994        N  0.28239783  0.92438562  0.13699704    -0.06660
N995        N  0.25604716  0.91738472  0.13819871    -0.60980
N996        N  0.34422746  0.97136881  0.16340939    -0.05650
N997        N  0.35857377  0.99519627  0.17794025    -0.58160
Mn998      Mn  0.30424633  0.90780276  0.16382730     1.20190
Mn999      Mn  0.34136636  0.96658139  0.11575003     1.10090
Cl1000     Cl  0.33767113  0.91927383  0.12139431    -0.86130
C1001       C  0.35283208  0.98788649  0.20623850     0.96200
C1002       C  0.25417097  0.93554457  0.11994423     0.96000
C1003       C  0.46703590  0.55856784  0.13379227    -0.16600
C1004       C  0.46120070  0.53358560  0.12356595    -0.31780
H1005       H  0.45091368  0.56110294  0.14394488     0.12420
H1006       H  0.47721794  0.53123428  0.11287993     0.13000
C1007       C  0.21436220  0.77501043  0.12445460    -0.16600
C1008       C  0.21860610  0.80001746  0.13317560    -0.31780
H1009       H  0.23094229  0.77313312  0.11451356     0.12420
H1010       H  0.20186861  0.80164511  0.14311496     0.13000
C1011       C  0.15491209  0.63865239  0.25787507    -0.16600
C1012       C  0.14542731  0.65633681  0.25504572    -0.31780
H1013       H  0.15607835  0.62772359  0.23848548     0.12420
H1014       H  0.14235333  0.66578657  0.27460751     0.13000
C1015       C  0.15167615  0.65383664  0.00944145    -0.16600
C1016       C  0.16650274  0.65174226  0.50297404    -0.31780
H1017       H  0.14233641  0.65599792  0.98928404     0.12420
H1018       H  0.17511516  0.64883998  0.52327706     0.13000
C1019       C  0.15179257  0.99018370  0.00243114    -0.16600
C1020       C  0.16504966  0.51873745  0.50435067    -0.31780
H1021       H  0.14351954  0.97874918  0.98176604     0.12420
H1022       H  0.17333381  0.52977505  0.52520044     0.13000
C1023       C  0.14174153  0.99984631  0.24083597    -0.16600
C1024       C  0.15405720  0.49932375  0.26700548    -0.31780
H1025       H  0.13547094  0.01521846  0.23767955     0.12420
H1026       H  0.16148104  0.48477088  0.26927105     0.13000
C1027       C  0.10076742  0.54082284  0.13370807    -0.16600
C1028       C  0.07968895  0.54448883  0.12639378    -0.31780
H1029       H  0.11942154  0.55757129  0.14428222     0.12420
H1030       H  0.06114464  0.52772931  0.11566201     0.13000
C1031       C  0.09685894  0.79172126  0.13166446    -0.16600
C1032       C  0.07731347  0.79617692  0.12039277    -0.31780
H1033       H  0.11439726  0.80821309  0.14395562     0.12420
H1034       H  0.05966576  0.77963691  0.10826693     0.13000
C1035       C  0.22914111  0.93799600  0.11645451    -0.16600
C1036       C  0.20547524  0.92008878  0.12978913    -0.31780
H1037       H  0.23060727  0.95536676  0.10421364     0.12420
H1038       H  0.20438156  0.90282027  0.14192749     0.13000
C1039       C  0.47074640  0.92271768  0.11791585    -0.16600
C1040       C  0.44700211  0.90391635  0.13040379    -0.31780
H1041       H  0.47193427  0.94024688  0.10623480     0.12420
H1042       H  0.44563313  0.88631260  0.14208975     0.13000
C1043       C  0.48585986  0.64584796  0.50539018    -0.16600
C1044       C  0.02337708  0.66772617  0.00395004    -0.31780
H1045       H  0.97381726  0.63631922  0.52466219     0.12420
H1046       H  0.03471870  0.67240483  0.98350061     0.13000
C1047       C  0.51348619  0.65943185  0.26990763    -0.16600
C1048       C  0.01193806  0.65166983  0.24165061    -0.31780
H1049       H  0.53173153  0.67963198  0.27484996     0.12420
H1050       H  0.99266128  0.63252816  0.23612660     0.13000
C1051       C  0.35419588  0.99180397  0.99603701    -0.16600
C1052       C  0.35404909  0.50394140  0.48286041    -0.31780
H1053       H  0.35434526  0.98180033  0.97543970     0.12420
H1054       H  0.35338793  0.48446403  0.47787111     0.13000
C1055       C  0.36641766  0.51974974  0.24631434    -0.16600
C1056       C  0.36539488  0.00826591  0.23031729    -0.31780
H1057       H  0.37481870  0.53070757  0.22589063     0.12420
H1058       H  0.38647751  0.02543490  0.22735638     0.13000
C1059       C  0.03322169  0.57365858  0.38881686    -0.16600
C1060       C  0.05816357  0.59265727  0.39928688    -0.31780
H1061       H  0.03032835  0.55465765  0.37842756     0.12420
H1062       H  0.06136658  0.61205907  0.40891379     0.13000
C1063       C  0.29347589  0.59498184  0.37474747    -0.16600
C1064       C  0.29910390  0.57686018  0.36192775    -0.31780
H1065       H  0.31006479  0.61356855  0.38565439     0.12420
H1066       H  0.28270989  0.55824573  0.35089003     0.13000
C1067       C  0.00984135  0.84361998  0.00648482    -0.16600
C1068       C  0.48799447  0.84222287  0.50130911    -0.31780
H1069       H  0.00335826  0.82183493  0.00264978     0.12420
H1070       H  0.47746259  0.83798717  0.52226048     0.13000
C1071       C  0.51055962  0.86561122  0.26734618    -0.16600
C1072       C  0.00555089  0.86027294  0.23963263    -0.31780
H1073       H  0.53237772  0.87538574  0.27357387     0.12420
H1074       H  0.98366080  0.84946538  0.23340739     0.13000
C1075       C  0.39806399  0.95621106  0.36944199    -0.16600
C1076       C  0.41968246  0.95241663  0.36740557    -0.31780
H1077       H  0.37756201  0.93881049  0.37435523     0.12420
H1078       H  0.44063902  0.97007397  0.36531181     0.13000
C1079       C  0.44483643  0.71566804  0.37947512    -0.16600
C1080       C  0.42340709  0.71997007  0.37635634    -0.31780
H1081       H  0.46593197  0.73321592  0.37809543     0.12420
H1082       H  0.40235246  0.70222463  0.37501376     0.13000
C1083       C  0.06279920  0.95847480  0.38057644    -0.16600
C1084       C  0.03707561  0.95418282  0.38063712    -0.31780
H1085       H  0.06632079  0.94124401  0.38440988     0.12420
H1086       H  0.03352394  0.97162472  0.37932532     0.13000
C1087       C  0.30510158  0.71911570  0.36817646    -0.16600
C1088       C  0.27929738  0.71453899  0.37057113    -0.31780
H1089       H  0.30892692  0.70185062  0.36933988     0.12420
H1090       H  0.27531258  0.73147717  0.36682908     0.13000
C1091       C  0.33900449  0.84613837  0.47654808    -0.16600
C1092       C  0.34087586  0.83641477  0.01463130    -0.31780
H1093       H  0.32819992  0.85602898  0.46728570     0.12420
H1094       H  0.35072527  0.82506187  0.02244262     0.13000
C1095       C  0.35657538  0.87112705  0.24733565    -0.16600
C1096       C  0.37101075  0.85757215  0.24757924    -0.31780
H1097       H  0.35125206  0.87714248  0.26797387     0.12420
H1098       H  0.37644028  0.85171200  0.22690619     0.13000
N1099       N  0.41570645  0.89392690  0.89846143    -0.06290
N1100       N  0.42407422  0.92059676  0.90258279    -0.58410
N1101       N  0.36678679  0.83161976  0.92094090    -0.05970
N1102       N  0.34430436  0.82546979  0.93587491    -0.60530
N1103       N  0.38886051  0.84319161  0.93849198    -0.05560
N1104       N  0.38154401  0.84456533  0.96577317    -0.58380
N1105       N  0.39320842  0.88181211  0.88176742    -0.05240
N1106       N  0.38547452  0.89968948  0.87425569    -0.60890
C1107       C  0.40499935  0.92373422  0.88717846     0.95890
C1108       C  0.35361728  0.83296085  0.96391904     0.95670
N1109       N  0.35940176  0.78065442  0.84761979    -0.06470
N1110       N  0.34078321  0.75382388  0.84366170    -0.58980
N1111       N  0.37620140  0.84424779  0.82632232    -0.04590
N1112       N  0.36752534  0.85860665  0.81143413    -0.60240
N1113       N  0.38717744  0.83351926  0.80885107    -0.06500
N1114       N  0.38577334  0.84040496  0.78116007    -0.59250
N1115       N  0.34894883  0.79269343  0.86388784    -0.04230
N1116       N  0.32311213  0.77477802  0.87076938    -0.60320
Mn1117     Mn  0.37094432  0.83723460  0.87322778     1.18440
C1118       C  0.31834193  0.75068481  0.85828989     0.97970
C1119       C  0.37356237  0.85624633  0.78343689     0.98640
N1120       N  0.44636243  0.84442593  0.94145032    -0.06520
N1121       N  0.45580841  0.84995579  0.96881001    -0.62830
N1122       N  0.48345596  0.88206338  0.88582721    -0.05320
N1123       N  0.00992619  0.90000212  0.87773854    -0.63500
N1124       N  0.47182909  0.89395852  0.90031026    -0.06030
N1125       N  0.48883987  0.92121203  0.90228051    -0.63090
N1126       N  0.45841148  0.83300143  0.92675295    -0.04920
N1127       N  0.47657925  0.83115206  0.94419573    -0.63780
Mn1128     Mn  0.43074313  0.86893073  0.91997095     1.10660
C1129       C  0.47433867  0.84139140  0.97054225     0.99190
C1130       C  0.01307968  0.92428763  0.88825966     0.99270
N1131       N  0.44490828  0.83176332  0.81184015    -0.06040
N1132       N  0.45431889  0.83632828  0.78447607    -0.61410
N1133       N  0.43747432  0.79123292  0.86984588    -0.05350
N1134       N  0.44241228  0.77196095  0.88003339    -0.58140
N1135       N  0.41567170  0.77989073  0.85178584    -0.06660
N1136       N  0.40503818  0.75254249  0.84993560    -0.60980
N1137       N  0.46601891  0.84247840  0.83071287    -0.05650
N1138       N  0.48984992  0.85463115  0.81687761    -0.58160
Mn1139     Mn  0.40155807  0.80588946  0.82870302     1.20190
Mn1140     Mn  0.46158486  0.83677868  0.87836770     1.10090
Cl1141     Cl  0.41614725  0.83683561  0.87506640    -0.86130
C1142       C  0.48248020  0.85083164  0.78814354     0.96200
C1143       C  0.42199453  0.74794706  0.86753851     0.96000
N1144       N  0.46864472  0.61489694  0.82065253    -0.06290
N1145       N  0.47954242  0.62040108  0.79416901    -0.58410
N1146       N  0.49281458  0.61131773  0.88585699    -0.05970
N1147       N  0.01343897  0.60875332  0.89100575    -0.60530
N1148       N  0.48292557  0.58781891  0.87063754    -0.05560
N1149       N  0.50039466  0.57852044  0.87220824    -0.58380
N1150       N  0.47819149  0.63811760  0.83634169    -0.05240
N1151       N  0.49612105  0.65978535  0.82085913    -0.60890
C1152       C  0.49647444  0.64844801  0.79447317     0.95890
C1153       C  0.01392253  0.58608144  0.88048435     0.95670
N1154       N  0.44477498  0.62347719  0.94551578    -0.06470
N1155       N  0.44881598  0.62741153  0.97443470    -0.58980
N1156       N  0.45107490  0.66003991  0.88426701    -0.04590
N1157       N  0.45992788  0.68547765  0.87459117    -0.60240
N1158       N  0.42687818  0.65016423  0.89706705    -0.06500
N1159       N  0.41848512  0.66851810  0.89565713    -0.59250
N1160       N  0.46875671  0.63400689  0.93226589    -0.04230
N1161       N  0.48944974  0.64499134  0.95158313    -0.60320
Mn1162     Mn  0.47294597  0.63642519  0.88450441     1.18440
C1163       C  0.47687458  0.64080010  0.97776824     0.97970
C1164       C  0.43929592  0.69037600  0.88149000     0.98640
N1165       N  0.42370868  0.53142767  0.86107657    -0.06520
N1166       N  0.42967008  0.51120252  0.86138319    -0.62830
N1167       N  0.38474613  0.55019686  0.82221169    -0.05320
N1168       N  0.36608454  0.53674874  0.80086188    -0.63500
N1169       N  0.40999266  0.56026598  0.81187675    -0.06030
N1170       N  0.40897591  0.55480648  0.78340176    -0.63090
N1171       N  0.39841734  0.52205566  0.87069950    -0.04920
N1172       N  0.40225868  0.00143403  0.89072761    -0.63780
Mn1173     Mn  0.44654644  0.57336294  0.84091151     1.10660
C1174       C  0.42468598  0.99927638  0.88433439     0.99190
C1175       C  0.38162063  0.54039525  0.77669241     0.99270
N1176       N  0.36982307  0.59543071  0.89033564    -0.06040
N1177       N  0.35378689  0.60635429  0.89110674    -0.61410
N1178       N  0.37539196  0.54388030  0.91888893    -0.05350
N1179       N  0.36535885  0.52044278  0.93351903    -0.58140
N1180       N  0.38568449  0.56556126  0.93715435    -0.06660
N1181       N  0.38219385  0.55691366  0.96485278    -0.60980
N1182       N  0.35919884  0.57342394  0.87256563    -0.05650
N1183       N  0.33503691  0.56851689  0.86154365    -0.58160
Mn1184     Mn  0.40644568  0.60869096  0.91851793     1.20190
Mn1185     Mn  0.37860896  0.54721506  0.87069432     1.10090
Cl1186     Cl  0.42600760  0.59148309  0.87846195    -0.86130
C1187       C  0.33231550  0.58960509  0.87308554     0.96200
C1188       C  0.36931234  0.52860868  0.96204068     0.96000
N1189       N  0.05509226  0.87757008  0.68860346    -0.06290
N1190       N  0.04575116  0.87423700  0.71594780    -0.58410
N1191       N  0.06155827  0.84812006  0.62515004    -0.05970
N1192       N  0.05605142  0.82449245  0.61209307    -0.60530
N1193       N  0.08262678  0.85675078  0.64377573    -0.05560
N1194       N  0.09221067  0.83946626  0.64348999    -0.58380
N1195       N  0.03408159  0.86794410  0.66972152    -0.05240
N1196       N  0.01035564  0.85816617  0.68344586    -0.60890
C1197       C  0.01770743  0.86212094  0.71216381     0.95890
C1198       C  0.07555086  0.81957170  0.62357783     0.95670
N1199       N  0.05443761  0.89926843  0.56158924    -0.06470
N1200       N  0.04862324  0.89657258  0.53300786    -0.58980
N1201       N  0.01729208  0.89354038  0.62048180    -0.04590
N1202       N  0.49148967  0.88539623  0.62930923    -0.60240
N1203       N  0.02828140  0.91836267  0.60874001    -0.06500
N1204       N  0.00983144  0.92657887  0.60818939    -0.59250
N1205       N  0.04274613  0.87450636  0.57382667    -0.04230
N1206       N  0.02828351  0.85467875  0.55388948    -0.60320
Mn1207     Mn  0.03878756  0.87041040  0.62205056     1.18440
C1208       C  0.03260560  0.86868329  0.52844541     0.97970
C1209       C  0.48718563  0.90623007  0.62178706     0.98640
N1210       N  0.13937747  0.91150556  0.65155902    -0.06520
N1211       N  0.15571221  0.90093403  0.65424184    -0.62830
N1212       N  0.12850524  0.95819044  0.68306863    -0.05320
N1213       N  0.14124469  0.97905209  0.70227698    -0.63500
N1214       N  0.11535362  0.93420087  0.69673546    -0.06030
N1215       N  0.11912143  0.93835358  0.72562267    -0.63090
N1216       N  0.15199656  0.93532096  0.63737384    -0.04920
N1217       N  0.17750103  0.94151034  0.63057153    -0.63780
Mn1218     Mn  0.09802014  0.89469713  0.67111918     1.10660
C1219       C  0.17932416  0.91963704  0.64103303     0.99190
C1220       C  0.13526734  0.96646283  0.72870872     0.99270
N1221       N  0.08663540  0.97533416  0.61777785    -0.06040
N1222       N  0.07794062  0.99333298  0.61983269    -0.61410
N1223       N  0.13467692  0.96589593  0.58581038    -0.05350
N1224       N  0.15663043  0.98439643  0.57100100    -0.58140
N1225       N  0.11191353  0.95731344  0.56959711    -0.06660
N1226       N  0.11811969  0.96954993  0.54370895    -0.60980
N1227       N  0.10947672  0.98407574  0.63377943    -0.05650
N1228       N  0.11796048  0.51004971  0.63486657    -0.58160
Mn1229     Mn  0.07018756  0.93779003  0.58901370     1.20190
Mn1230     Mn  0.13189742  0.96118094  0.63470513     1.10090
Cl1231     Cl  0.08491746  0.91606108  0.62902328    -0.86130
C1232       C  0.09677640  0.51429871  0.62869572     0.96200
C1233       C  0.14603556  0.98626259  0.54464212     0.96000
N1234       N  0.23308425  0.64015094  0.89424761    -0.06290
N1235       N  0.25990861  0.65539715  0.88913942    -0.58410
N1236       N  0.17842503  0.63148451  0.93281113    -0.05970
N1237       N  0.16851039  0.64194137  0.95218895    -0.60530
N1238       N  0.19225344  0.62132330  0.94634139    -0.05560
N1239       N  0.19206749  0.62481564  0.97526352    -0.58380
N1240       N  0.21940053  0.65061654  0.88100277    -0.05240
N1241       N  0.23678986  0.67353515  0.86695110    -0.60890
C1242       C  0.26191555  0.67607554  0.87211458     0.95890
C1243       C  0.17719814  0.63775585  0.97860746     0.95670
N1244       N  0.11286903  0.58361800  0.87333318    -0.06470
N1245       N  0.08636206  0.57593501  0.87497906    -0.58980
N1246       N  0.16765642  0.62806270  0.83560546    -0.04590
N1247       N  0.17106336  0.64874030  0.81854259    -0.60240
N1248       N  0.15248890  0.60388961  0.82167471    -0.06500
N1249       N  0.14551839  0.60785667  0.79495335    -0.59250
N1250       N  0.12832648  0.60773670  0.88715994    -0.04230
N1251       N  0.11267844  0.61690128  0.89843340    -0.60320
Mn1252     Mn  0.17378081  0.63021921  0.88421804     1.18440
C1253       C  0.08654807  0.59674774  0.89093022     0.97970
C1254       C  0.15744731  0.63592564  0.79313233     0.98640
N1255       N  0.19024026  0.56289226  0.94521527    -0.06520
N1256       N  0.19187066  0.55856968  0.97363300    -0.62830
N1257       N  0.21546389  0.55915209  0.87944430    -0.05320
N1258       N  0.23105517  0.55109361  0.86586336    -0.63500
N1259       N  0.23092882  0.58308823  0.89345213    -0.06030
N1260       N  0.25747302  0.59197137  0.88949522    -0.63090
N1261       N  0.17513694  0.53898321  0.93096412    -0.04920
N1262       N  0.16627882  0.51794831  0.94931407    -0.63780
Mn1263     Mn  0.21220344  0.60225513  0.92058738     1.10660
C1264       C  0.17686119  0.53041037  0.97584794     0.99190
C1265       C  0.25720521  0.57189016  0.87209812     0.99270
N1266       N  0.15101113  0.54450930  0.82054376    -0.06040
N1267       N  0.14458378  0.53412444  0.79331601    -0.61410
N1268       N  0.12527172  0.51552201  0.88462857    -0.05350
N1269       N  0.11487424  0.98820779  0.88988608    -0.58140
N1270       N  0.11105534  0.52535131  0.87126219    -0.06660
N1271       N  0.08456009  0.50595346  0.86940926    -0.60980
N1272       N  0.16497553  0.53454389  0.83429972    -0.05650
N1273       N  0.16823187  0.51737754  0.81681313    -0.58160
Mn1274     Mn  0.13164725  0.56428779  0.84627269     1.20190
Mn1275     Mn  0.17029783  0.53680554  0.88246563     1.10090
Cl1276     Cl  0.17194177  0.58340322  0.88330015    -0.86130
C1277       C  0.15576632  0.51749316  0.79127850     0.96200
C1278       C  0.08872007  0.98166516  0.88230490     0.96000
N1279       N  0.02676834  0.61317105  0.60924951    -0.06290
N1280       N  0.00783725  0.58653844  0.61037947    -0.58410
N1281       N  0.04362158  0.67284946  0.57751129    -0.05970
N1282       N  0.02818670  0.67849351  0.55963888    -0.60530
N1283       N  0.05263583  0.65848855  0.56301706    -0.05560
N1284       N  0.04442513  0.65486021  0.53520878    -0.58380
N1285       N  0.01880153  0.62818897  0.62401726    -0.05240
N1286       N  0.49403545  0.61261840  0.63842532    -0.60890
C1287       C  0.48821993  0.58657929  0.63112062     0.95890
C1288       C  0.02947834  0.66756579  0.53320871     0.95670
N1289       N  0.09647237  0.72862476  0.64740189    -0.06470
N1290       N  0.10870096  0.75607859  0.64906041    -0.58980
N1291       N  0.04504350  0.67084655  0.67468499    -0.04590
N1292       N  0.02251151  0.65831680  0.69060091    -0.60240
N1293       N  0.06754881  0.68054048  0.69147743    -0.06500
N1294       N  0.06048680  0.67517001  0.71954807    -0.59250
N1295       N  0.07373202  0.71825859  0.63082623    -0.04230
N1296       N  0.06995207  0.73839003  0.62116650    -0.60320
Mn1297     Mn  0.04504629  0.67317966  0.62660031     1.18440
C1298       C  0.09205193  0.76181930  0.63247827     0.97970
C1299       C  0.03224032  0.66138446  0.71841766     0.98640
N1300       N  0.10530400  0.65291037  0.56280887    -0.06520
N1301       N  0.10869479  0.65218397  0.53421386    -0.62830
N1302       N  0.10207506  0.61681360  0.62235998    -0.05320
N1303       N  0.10564870  0.59666151  0.63238989    -0.63500
N1304       N  0.07830202  0.60632007  0.60791433    -0.06030
N1305       N  0.06508407  0.57885003  0.60772459    -0.63090
N1306       N  0.12919582  0.66320870  0.57712916    -0.04920
N1307       N  0.14934758  0.66906367  0.55839393    -0.63780
Mn1308     Mn  0.06572635  0.63255246  0.58543796     1.10660
C1309       C  0.13617627  0.66245340  0.53172172     0.99190
C1310       C  0.08226871  0.57317314  0.62321417     0.99270
N1311       N  0.12212211  0.67372908  0.69125672    -0.06040
N1312       N  0.12498582  0.66906491  0.71940147    -0.61410
N1313       N  0.15670967  0.70770010  0.63028218    -0.05350
N1314       N  0.18143609  0.72427048  0.61904795    -0.58140
N1315       N  0.14917576  0.72213677  0.64697927    -0.06720
N1316       N  0.16854981  0.74884275  0.64722677    -0.60980
N1317       N  0.12953267  0.65943136  0.67417811    -0.05650
N1318       N  0.13687510  0.64441302  0.69006621    -0.58160
Mn1319     Mn  0.10917903  0.70186372  0.67050545     1.20190
Mn1320     Mn  0.13020626  0.66196628  0.62583862     1.10090
Cl1321     Cl  0.08780891  0.66783207  0.62706819    -0.86130
C1322       C  0.13422445  0.65066874  0.71815359     0.96200
C1323       C  0.18850684  0.74988776  0.62968634     0.96000
N1324       N  0.39217894  0.92011413  0.59214014    -0.06290
N1325       N  0.41926714  0.93172874  0.59007262    -0.58410
N1326       N  0.32942326  0.87163035  0.56976805    -0.05970
N1327       N  0.32448386  0.84934554  0.55425246    -0.60530
N1328       N  0.34027355  0.89384461  0.55293638    -0.05560
N1329       N  0.34258744  0.88661661  0.52569750    -0.58380
N1330       N  0.38183997  0.89803755  0.60888789    -0.05240
N1331       N  0.40199597  0.89406699  0.61858971    -0.60890
C1332       C  0.42518001  0.91542323  0.60658745     0.95890
C1333       C  0.33221610  0.85870817  0.52671595     0.95670
N1334       N  0.28202097  0.86605593  0.64498245    -0.06470
N1335       N  0.25539667  0.84915568  0.64989274    -0.58980
N1336       N  0.34501830  0.87887733  0.66476870    -0.04590
N1337       N  0.35856254  0.86864511  0.67872369    -0.60240
N1338       N  0.33550105  0.89025636  0.68331276    -0.06500
N1339       N  0.34247945  0.88770754  0.71068131    -0.59250
N1340       N  0.29154849  0.85391475  0.62742307    -0.04230
N1341       N  0.27143247  0.82828798  0.62029527    -0.60320
Mn1342     Mn  0.33662078  0.87496673  0.61766570     1.18440
C1343       C  0.24898616  0.82578689  0.63435355     0.97970
C1344       C  0.35702015  0.87428606  0.70723103     0.98640
N1345       N  0.34343342  0.95417483  0.55525587    -0.06520
N1346       N  0.34695408  0.96460457  0.52859535    -0.62830
N1347       N  0.38518931  0.98805985  0.61241847    -0.05320
N1348       N  0.40554173  0.51230962  0.63183813    -0.63500
N1349       N  0.39463711  0.97607631  0.59475059    -0.06030
N1350       N  0.42185946  0.99128396  0.59305742    -0.63090
N1351       N  0.33404828  0.96644653  0.57284351    -0.04920
N1352       N  0.33087628  0.98514067  0.55823747    -0.63780
Mn1353     Mn  0.36724150  0.93585804  0.57311284     1.10660
C1354       C  0.33884745  0.98367878  0.53066740     0.99190
C1355       C  0.42845902  0.51361856  0.62061332     0.99270
N1356       N  0.33733882  0.94926467  0.68546909    -0.06040
N1357       N  0.34400684  0.95739033  0.71339892    -0.61410
N1358       N  0.29634249  0.94669722  0.62947014    -0.05350
N1359       N  0.27847853  0.95416677  0.62083429    -0.58140
N1360       N  0.28423882  0.92444480  0.64612252    -0.06660
N1361       N  0.25760654  0.91629808  0.64898468    -0.60980
N1362       N  0.34901877  0.97102340  0.66820638    -0.05650
N1363       N  0.36425856  0.99417902  0.68367513    -0.58160
Mn1364     Mn  0.30922411  0.90720487  0.66601522     1.20190
Mn1365     Mn  0.34090209  0.96832546  0.62078572     1.10090
Cl1366     Cl  0.33810779  0.92137696  0.61920287    -0.86130
C1367       C  0.36090515  0.98549260  0.71170141     0.96200
C1368       C  0.25439072  0.93505986  0.63296045     0.96000
C1369       C  0.46151518  0.56142833  0.63612358    -0.16600
C1370       C  0.45657533  0.53705376  0.62470625    -0.31780
H1371       H  0.44498794  0.56352389  0.64589138     0.12420
H1372       H  0.47309670  0.53526690  0.61443380     0.13000
C1373       C  0.21549700  0.77544954  0.62433718    -0.16600
C1374       C  0.22142278  0.80021745  0.63589897    -0.31780
H1375       H  0.23097635  0.77366686  0.61177921     0.12420
H1376       H  0.20580102  0.80168227  0.64854827     0.13000
C1377       C  0.15201491  0.65043298  0.76882190    -0.16600
C1378       C  0.13939433  0.63711027  0.74344991    -0.31780
H1379       H  0.15861619  0.67235798  0.77176731     0.12420
H1380       H  0.13456620  0.61574040  0.73996967     0.13000
C1381       C  0.14813040  0.66043222  0.50385821    -0.16600
C1382       C  0.17000581  0.64496482  0.00761691    -0.31780
H1383       H  0.13818904  0.66151550  0.48362959     0.12420
H1384       H  0.17813904  0.64092543  0.02759668     0.13000
C1385       C  0.16202072  0.00763409  0.52197427    -0.16600
C1386       C  0.17188112  0.51522088  0.00393037    -0.31780
H1387       H  0.18423476  0.02146823  0.52521864     0.12420
H1388       H  0.17750159  0.52712449  0.02449835     0.13000
C1389       C  0.14525674  0.98156756  0.75735416    -0.16600
C1390       C  0.15048036  0.49749156  0.76689465    -0.31780
H1391       H  0.13643073  0.97010026  0.77743061     0.12420
H1392       H  0.15471010  0.48074519  0.77079639     0.13000
C1393       C  0.09815357  0.54083001  0.63451582    -0.16600
C1394       C  0.07793788  0.54506165  0.62495183    -0.31780
H1395       H  0.11723330  0.55786842  0.64407902     0.12420
H1396       H  0.05903660  0.52806594  0.61503501     0.13000
C1397       C  0.09510075  0.78956912  0.63156173    -0.16600
C1398       C  0.07599590  0.79375259  0.61828116    -0.31780
H1399       H  0.11200045  0.80622265  0.64439687     0.12420
H1400       H  0.05910529  0.77717702  0.60537444     0.13000
C1401       C  0.22868121  0.93643011  0.63017966    -0.16600
C1402       C  0.20450166  0.91718888  0.64156209    -0.31780
H1403       H  0.22995331  0.95418938  0.61893462     0.12420
H1404       H  0.20321826  0.89933534  0.65260676     0.13000
C1405       C  0.45960637  0.90334452  0.62358320    -0.16600
C1406       C  0.45361942  0.92058620  0.60943511    -0.31780
H1407       H  0.44330200  0.88521548  0.63457640     0.12420
H1408       H  0.46984060  0.93832236  0.59787459     0.13000
C1409       C  0.49235512  0.65012759  0.00616089    -0.16600
C1410       C  0.01281237  0.66429087  0.50648336    -0.31780
H1411       H  0.98419605  0.64628747  0.02391330     0.12420
H1412       H  0.02428309  0.67235485  0.48628516     0.13000
C1413       C  0.51627135  0.66391874  0.77079207    -0.16600
C1414       C  0.01334040  0.64777981  0.74305311    -0.31780
H1415       H  0.53276329  0.68532545  0.77488349     0.12420
H1416       H  0.99557301  0.62712925  0.73851487     0.13000
C1417       C  0.34541880  0.00537179  0.50849880    -0.16600
C1418       C  0.36326998  0.50840997  0.98592836    -0.31780
H1419       H  0.33657436  0.01875376  0.51040412     0.12420
H1420       H  0.36401638  0.48981030  0.98011092     0.13000
C1421       C  0.37111817  0.52549179  0.74815610    -0.16600
C1422       C  0.37445875  0.00503830  0.73663481    -0.31780
H1423       H  0.38060867  0.53693045  0.72825440     0.12420
H1424       H  0.39530817  0.02249602  0.73333668     0.13000
C1425       C  0.03727966  0.58106011  0.88327728    -0.16600
C1426       C  0.06208214  0.59986579  0.89489828    -0.31780
H1427       H  0.03462821  0.56221669  0.87274837     0.12420
H1428       H  0.06508278  0.61898733  0.90504559     0.13000
C1429       C  0.28217057  0.57075405  0.86442810    -0.16600
C1430       C  0.30739933  0.59205186  0.87175605    -0.31780
H1431       H  0.27967381  0.55142988  0.85544265     0.12420
H1432       H  0.30943040  0.61103775  0.88120587     0.13000
C1433       C  0.01603216  0.85639104  0.50112908    -0.16600
C1434       C  0.49732245  0.85520377  0.99201973    -0.31780
H1435       H  0.02649117  0.86309768  0.48018460     0.12420
H1436       H  0.50315494  0.87650038  0.99801403     0.13000
C1437       C  0.50351151  0.85983100  0.76468356    -0.16600
C1438       C  0.99668558  0.85359848  0.73550053    -0.31780
H1439       H  0.52525820  0.87086004  0.77144715     0.12420
H1440       H  0.97494953  0.84246375  0.72867841     0.13000
C1441       C  0.42655758  0.97445024  0.88972677    -0.16600
C1442       C  0.40386582  0.94931951  0.88611968    -0.31780
H1443       H  0.44683916  0.97660376  0.89302786     0.12420
H1444       H  0.38415751  0.94748544  0.87992606     0.13000
C1445       C  0.44120701  0.71755316  0.87686276    -0.16600
C1446       C  0.41888856  0.72020008  0.87213703    -0.31780
H1447       H  0.46185644  0.73591448  0.87607242     0.12420
H1448       H  0.39832104  0.70174817  0.87025250     0.13000
C1449       C  0.06375487  0.95430449  0.88670237    -0.16600
C1450       C  0.03848085  0.95153971  0.88577614    -0.31780
H1451       H  0.06607105  0.93635523  0.89065911     0.12420
H1452       H  0.03635794  0.96984584  0.88410849     0.13000
C1453       C  0.29123387  0.72500955  0.85996722    -0.16600
C1454       C  0.28867330  0.69999520  0.86342728    -0.31780
H1455       H  0.27321641  0.72734327  0.86266596     0.12420
H1456       H  0.30699880  0.69795005  0.86372194     0.13000
C1457       C  0.33818970  0.83911215  0.98577098    -0.16600
C1458       C  0.34031089  0.84385887  0.50571317    -0.31780
H1459       H  0.32723467  0.84943586  0.97813271     0.12420
H1460       H  0.34977764  0.83252458  0.51467312     0.13000
C1461       C  0.36816717  0.86440785  0.73087875    -0.16600
C1462       C  0.36521759  0.86824794  0.75931824    -0.31780
H1463       H  0.37810207  0.85271243  0.72457845     0.12420
H1464       H  0.35507786  0.87979662  0.76544819     0.13000
N1465       N  0.92292121  0.39503599  0.40044230    -0.06290
N1466       N  0.93563448  0.42258170  0.40130847    -0.58410
N1467       N  0.87080454  0.33420797  0.42228104    -0.05970
N1468       N  0.84892910  0.33088839  0.43659805    -0.60530
N1469       N  0.89256771  0.34413038  0.44022429    -0.05560
N1470       N  0.88551035  0.34741169  0.46706962    -0.58380
N1471       N  0.90081136  0.38462428  0.38316554    -0.05240
N1472       N  0.89763845  0.40463972  0.37212465    -0.60890
C1473       C  0.91948860  0.42813242  0.38360767     0.95890
C1474       C  0.85805855  0.33849463  0.46464518     0.95670
N1475       N  0.86065782  0.28233502  0.34850120    -0.06470
N1476       N  0.84134114  0.25563939  0.34517396    -0.58980
N1477       N  0.87971767  0.34690028  0.32740506    -0.04590
N1478       N  0.86960701  0.36019040  0.31277849    -0.60240
N1479       N  0.88892008  0.33482719  0.30939283    -0.06500
N1480       N  0.88466317  0.33958636  0.28165619    -0.59250
N1481       N  0.85122404  0.29524735  0.36499955    -0.04230
N1482       N  0.82541106  0.27802567  0.37264736    -0.60320
Mn1483     Mn  0.87536707  0.33999691  0.37452801     1.18440
C1484       C  0.81957825  0.25345124  0.36043699     0.97970
C1485       C  0.87278281  0.35572526  0.28435938     0.98640
N1486       N  0.94852411  0.34025944  0.44210939    -0.06520
N1487       N  0.95657837  0.34180228  0.46988314    -0.62830
N1488       N  0.98677800  0.37947290  0.38713543    -0.05320
N1489       N  0.51292043  0.39776161  0.37657248    -0.63500
N1490       N  0.97580816  0.39123380  0.40292293    -0.06030
N1491       N  0.99270346  0.41841627  0.40497036    -0.63090
N1492       N  0.95913037  0.32832780  0.42577846    -0.04920
N1493       N  0.97459393  0.32179830  0.44223872    -0.63780
Mn1494     Mn  0.93488969  0.36753003  0.42207036     1.10660
C1495       C  0.97252028  0.32989803  0.46975018     0.99190
C1496       C  0.51620540  0.42220101  0.38708842     0.99270
N1497       N  0.94636469  0.33205233  0.31165545    -0.06040
N1498       N  0.95586895  0.33869365  0.28440601    -0.61410
N1499       N  0.93789838  0.28907749  0.36789099    -0.05350
N1500       N  0.94229353  0.26912209  0.37705519    -0.58140
N1501       N  0.91586332  0.27867618  0.35022482    -0.06660
N1502       N  0.90457787  0.25124222  0.34758626    -0.60980
N1503       N  0.96749205  0.34157242  0.33046586    -0.05650
N1504       N  0.99134603  0.35475501  0.31676571    -0.58160
Mn1505     Mn  0.90272406  0.30637217  0.32866555     1.20190
Mn1506     Mn  0.96312287  0.33427685  0.37782410     1.10090
Cl1507     Cl  0.91883096  0.33652155  0.37584229    -0.86130
C1508       C  0.98406427  0.35300904  0.28815346     0.96200
C1509       C  0.92135982  0.24560800  0.36431466     0.96000
N1510       N  0.95988051  0.10836261  0.31348868    -0.06290
N1511       N  0.96917813  0.11396598  0.28634894    -0.58410
N1512       N  0.98718397  0.10266540  0.37647056    -0.05970
N1513       N  0.51127176  0.10643849  0.38604652    -0.60530
N1514       N  0.97501497  0.07962146  0.36026759    -0.05560
N1515       N  0.98957896  0.06709146  0.36034929    -0.58380
N1516       N  0.97073447  0.13145927  0.32962865    -0.05240
N1517       N  0.98729278  0.15326671  0.31355114    -0.60890
C1518       C  0.98583210  0.14198926  0.28660138     0.95890
C1519       C  0.51182698  0.08353536  0.37624768     0.95670
N1520       N  0.94212141  0.11908307  0.44023596    -0.06470
N1521       N  0.94703011  0.12417742  0.46897478    -0.58980
N1522       N  0.94737261  0.15477053  0.37959612    -0.04590
N1523       N  0.95667841  0.18038091  0.37009740    -0.60240
N1524       N  0.92312752  0.14528593  0.39229273    -0.06500
N1525       N  0.91538252  0.16418328  0.39120099    -0.59250
N1526       N  0.96573009  0.12797643  0.42644360    -0.04230
N1527       N  0.98690422  0.13916808  0.44530579    -0.60320
Mn1528     Mn  0.96845732  0.12989425  0.37814984     1.18440
C1529       C  0.97509591  0.13664998  0.47177062     0.97970
C1530       C  0.93645863  0.18590868  0.37712863     0.98640
N1531       N  0.91750380  0.02593909  0.35393881    -0.06520
N1532       N  0.92396724  0.00623324  0.35242211    -0.62830
N1533       N  0.87598822  0.04329040  0.32057173    -0.05320
N1534       N  0.85513134  0.02730907  0.30242175    -0.63500
N1535       N  0.89986966  0.05288614  0.30723307    -0.06030
N1536       N  0.89557654  0.04355760  0.27970398    -0.63090
N1537       N  0.89357871  0.01663228  0.36683634    -0.04920
N1538       N  0.88522125  0.49184901  0.37205327    -0.63780
Mn1539     Mn  0.93821454  0.06688284  0.33334550     1.10660
C1540       C  0.90564460  0.48644911  0.36638418     0.99190
C1541       C  0.86758835  0.02793826  0.27695045     0.99270
N1542       N  0.86399965  0.08902161  0.38710429    -0.06040
N1543       N  0.84584843  0.09758103  0.38716303    -0.61410
N1544       N  0.87273893  0.03963463  0.41634625    -0.05350
N1545       N  0.86243859  0.01649014  0.43136806    -0.58140
N1546       N  0.88253500  0.06162795  0.43406034    -0.06660
N1547       N  0.87856126  0.05353526  0.46191881    -0.60980
N1548       N  0.85460302  0.06660484  0.37015039    -0.05650
N1549       N  0.83023185  0.05947654  0.35837838    -0.58160
Mn1550     Mn  0.90250451  0.10409843  0.41440897     1.20190
Mn1551     Mn  0.87393609  0.04156355  0.36856292     1.10090
Cl1552     Cl  0.92086291  0.08597791  0.37367105    -0.86130
C1553       C  0.82508999  0.07901417  0.36887524     0.96200
C1554       C  0.86581647  0.02523652  0.45956518     0.96000
N1555       N  0.55608686  0.38877234  0.18893211    -0.06290
N1556       N  0.54712404  0.38639983  0.21635451    -0.58410
N1557       N  0.55932166  0.35058481  0.13287708    -0.05970
N1558       N  0.55262490  0.32548859  0.12312400    -0.60530
N1559       N  0.58149464  0.36107018  0.15027610    -0.05560
N1560       N  0.59039105  0.34316023  0.15255061    -0.58380
N1561       N  0.53473437  0.37836938  0.17044119    -0.05240
N1562       N  0.51124087  0.36912641  0.18439932    -0.60890
C1563       C  0.51903224  0.37424404  0.21289824     0.95890
C1564       C  0.57215441  0.32112378  0.13540615     0.95670
N1565       N  0.55092341  0.38956882  0.05856111    -0.06470
N1566       N  0.53978984  0.38199870  0.03175272    -0.58980
N1567       N  0.51730118  0.39740674  0.11436017    -0.04590
N1568       N  0.99409689  0.39516307  0.12375005    -0.60240
N1569       N  0.52953838  0.41922544  0.09735254    -0.06500
N1570       N  0.51401992  0.43055024  0.09366166    -0.59250
N1571       N  0.53907080  0.36796728  0.07611972    -0.04230
N1572       N  0.51982355  0.34572712  0.06162768    -0.60320
Mn1573     Mn  0.53750469  0.37318852  0.12359972     1.18440
C1574       C  0.52075873  0.35447023  0.03390513     0.97970
C1575       C  0.99305526  0.41731651  0.11305805     0.98640
N1576       N  0.63978917  0.41752426  0.15129867    -0.06520
N1577       N  0.65619535  0.40720284  0.15577349    -0.62830
N1578       N  0.62754497  0.46798330  0.17223008    -0.05320
N1579       N  0.63719619  0.49156892  0.18745372    -0.63500
N1580       N  0.61618077  0.44642482  0.18989979    -0.06030
N1581       N  0.61856403  0.45518772  0.21770139    -0.63090
N1582       N  0.65183724  0.43935328  0.13396099    -0.04920
N1583       N  0.67684441  0.44432055  0.12660454    -0.63780
Mn1584     Mn  0.59861132  0.40319620  0.17121321     1.10660
C1585       C  0.67917920  0.42394881  0.14028622     0.99190
C1586       C  0.63175420  0.48346077  0.21574537     0.99270
N1587       N  0.58579090  0.47350015  0.09786588    -0.06040
N1588       N  0.57441216  0.48914629  0.09608586    -0.61410
N1589       N  0.63334831  0.46033206  0.07527326    -0.05350
N1590       N  0.65453173  0.47693535  0.05840455    -0.58140
N1591       N  0.61044030  0.44685617  0.05895154    -0.06660
N1592       N  0.61582610  0.45336720  0.03099981    -0.60980
N1593       N  0.60796046  0.48532132  0.11520328    -0.05650
N1594       N  0.62172194  0.01159352  0.12876093    -0.58160
Mn1595     Mn  0.56947100  0.43224115  0.07766578     1.20190
Mn1596     Mn  0.63106744  0.46378886  0.12411985     1.10090
Cl1597     Cl  0.58440359  0.41802214  0.12402225    -0.86130
C1598       C  0.60154839  0.01638585  0.11937911     0.96200
C1599       C  0.64327245  0.47186197  0.03080847     0.96000
N1600       N  0.73032466  0.14470552  0.39957113    -0.06290
N1601       N  0.75757704  0.16032293  0.39757299    -0.58410
N1602       N  0.67104205  0.13255159  0.42742344    -0.05970
N1603       N  0.65767434  0.14180483  0.44307640    -0.60530
N1604       N  0.68268352  0.12224528  0.44448008    -0.05560
N1605       N  0.67800660  0.12499524  0.47252655    -0.58380
N1606       N  0.71798715  0.15436594  0.38255452    -0.05240
N1607       N  0.73661685  0.17717399  0.36918260    -0.60890
C1608       C  0.76120340  0.18048869  0.37869426     0.95890
C1609       C  0.66236105  0.13728730  0.47098263     0.95670
N1610       N  0.61284792  0.08504128  0.36488394    -0.06470
N1611       N  0.58602036  0.07622418  0.36657417    -0.58980
N1612       N  0.67090318  0.13122391  0.33116771    -0.04590
N1613       N  0.67508257  0.15201166  0.31392171    -0.60240
N1614       N  0.65666944  0.10718278  0.31679947    -0.06500
N1615       N  0.65130903  0.11132857  0.28950051    -0.59250
N1616       N  0.62735183  0.10939994  0.37843947    -0.04230
N1617       N  0.61102822  0.11755885  0.38982823    -0.60320
Mn1618     Mn  0.67236048  0.13261142  0.37965288     1.18440
C1619       C  0.58536072  0.09671044  0.38248908     0.97970
C1620       C  0.66312124  0.13936293  0.28790759     0.98640
N1621       N  0.68300866  0.06382638  0.44538859    -0.06520
N1622       N  0.67830850  0.05670074  0.47356454    -0.62830
N1623       N  0.71954781  0.06813439  0.38378541    -0.05320
N1624       N  0.73953214  0.06495181  0.37244114    -0.63500
N1625       N  0.73049147  0.09039421  0.40115306    -0.06030
N1626       N  0.75770415  0.10305167  0.40168911    -0.63090
N1627       N  0.67174386  0.04123315  0.42844798    -0.04920
N1628       N  0.65873932  0.01859377  0.44443329    -0.63780
Mn1629     Mn  0.70682551  0.10542637  0.42391671     1.10660
C1630       C  0.66325077  0.02827273  0.47247135     0.99190
C1631       C  0.76314008  0.08720530  0.38377953     0.99270
N1632       N  0.65719251  0.04971915  0.31667237    -0.06040
N1633       N  0.65084414  0.03863891  0.28977789    -0.61410
N1634       N  0.62831005  0.01810688  0.37743114    -0.05350
N1635       N  0.61637330  0.49161457  0.39071071    -0.58140
N1636       N  0.61363718  0.02742232  0.36409730    -0.06660
N1637       N  0.58707153  0.00788201  0.36328781    -0.60980
N1638       N  0.67198057  0.04095502  0.33100646    -0.05650
N1639       N  0.67546963  0.02351903  0.31401386    -0.58160
Mn1640     Mn  0.63465584  0.06717756  0.34026091     1.20190
Mn1641     Mn  0.67353783  0.04193113  0.37994071     1.10090
Cl1642     Cl  0.67188248  0.08674107  0.38074649    -0.86130
C1643       C  0.66253417  0.02252985  0.28825335     0.96200
C1644       C  0.59002690  0.48420197  0.38328895     0.96000
N1645       N  0.52582740  0.11317979  0.11435446    -0.06290
N1646       N  0.50735303  0.08640337  0.11451601    -0.58410
N1647       N  0.53948730  0.17309197  0.08566544    -0.05970
N1648       N  0.52266750  0.17888361  0.07050837    -0.60530
N1649       N  0.54726100  0.15884782  0.06896339    -0.05560
N1650       N  0.53616461  0.15496799  0.04238228    -0.58380
N1651       N  0.51812647  0.12726581  0.13127445    -0.05240
N1652       N  0.99203869  0.11285554  0.14031792    -0.60890
C1653       C  0.98512961  0.08715585  0.13024540     0.95890
C1654       C  0.52103296  0.16762382  0.04344686     0.95670
N1655       N  0.59611760  0.22966548  0.15141647    -0.06470
N1656       N  0.60758882  0.25699078  0.15451601    -0.58980
N1657       N  0.54792871  0.17199183  0.18227936    -0.04590
N1658       N  0.52766955  0.16360313  0.20128852    -0.60240
N1659       N  0.57209992  0.18253895  0.19612819    -0.06500
N1660       N  0.56864227  0.18158297  0.22502903    -0.59250
N1661       N  0.57183042  0.21890779  0.13768798    -0.04230
N1662       N  0.56632123  0.23877143  0.13133931    -0.60320
Mn1663     Mn  0.54387883  0.17310490  0.13418490     1.18440
C1664       C  0.58893216  0.26242952  0.14174559     0.97970
C1665       C  0.54076829  0.16965366  0.22783300     0.98640
N1666       N  0.60059416  0.15288548  0.06113585    -0.06520
N1667       N  0.60219558  0.14916880  0.03259980    -0.62830
N1668       N  0.60154624  0.11729635  0.11952564    -0.05320
N1669       N  0.60691623  0.09753209  0.12653715    -0.63500
N1670       N  0.57707082  0.10648029  0.10651933    -0.06030
N1671       N  0.56511883  0.07908711  0.10440243    -0.63090
N1672       N  0.62514621  0.16305449  0.07401380    -0.04920
N1673       N  0.64380497  0.16598415  0.05449155    -0.63780
Mn1674     Mn  0.56264050  0.13291492  0.08737935     1.10660
C1675       C  0.62924937  0.15763246  0.02870954     0.99190
C1676       C  0.58386510  0.07382228  0.11717330     0.99270
N1677       N  0.62550587  0.17550352  0.18853673    -0.06040
N1678       N  0.63019968  0.17131505  0.21619270    -0.61410
N1679       N  0.65483081  0.20816150  0.12559768    -0.05350
N1680       N  0.67818074  0.22474044  0.11189309    -0.58140
N1681       N  0.64819772  0.22274708  0.14320248    -0.06720
N1682       N  0.66674354  0.24953897  0.14164190    -0.60980
N1683       N  0.63156935  0.16080955  0.17042798    -0.05650
N1684       N  0.63991518  0.14601810  0.18518485    -0.58160
Mn1685     Mn  0.61099412  0.20312816  0.17072305     1.20190
Mn1686     Mn  0.62896317  0.16254846  0.12239955     1.10090
Cl1687     Cl  0.58672601  0.16826858  0.12859344    -0.86130
C1688       C  0.63919263  0.15285640  0.21356951     0.96200
C1689       C  0.68520550  0.25046810  0.12199244     0.96000
N1690       N  0.89163389  0.41591455  0.10272030    -0.06290
N1691       N  0.91822724  0.42371066  0.10347481    -0.58410
N1692       N  0.83074442  0.37382265  0.06991597    -0.05970
N1693       N  0.82687796  0.35324353  0.05195967    -0.60530
N1694       N  0.84525551  0.39797232  0.05665079    -0.05560
N1695       N  0.85103662  0.39390848  0.02964635    -0.58380
N1696       N  0.87693357  0.39181635  0.11570947    -0.05240
N1697       N  0.89310469  0.38267127  0.12568238    -0.60890
C1698       C  0.91879418  0.40282144  0.11799954     0.95890
C1699       C  0.83907661  0.36599313  0.02667139     0.95670
N1700       N  0.77662481  0.36445897  0.14024715    -0.06470
N1701       N  0.74953241  0.34837192  0.14240453    -0.58980
N1702       N  0.83535489  0.37114098  0.16602952    -0.04590
N1703       N  0.84836150  0.36045433  0.18022690    -0.60240
N1704       N  0.82625299  0.38307442  0.18435454    -0.06500
N1705       N  0.83309651  0.38051283  0.21186638    -0.59250
N1706       N  0.78664542  0.35288371  0.12265173    -0.04230
N1707       N  0.76648688  0.32829731  0.11291153    -0.60320
Mn1708     Mn  0.83182148  0.37173777  0.11832410     1.18440
C1709       C  0.74347010  0.32605746  0.12520458     0.97970
C1710       C  0.84695730  0.36630839  0.20870242     0.98640
N1711       N  0.85203243  0.45902892  0.06134514    -0.06520
N1712       N  0.85760222  0.47050815  0.03501386    -0.62830
N1713       N  0.88645800  0.48657325  0.12383549    -0.05320
N1714       N  0.90160847  0.01260644  0.12196968    -0.63500
N1715       N  0.89725354  0.47465260  0.10799260    -0.06030
N1716       N  0.92451584  0.49014693  0.10803928    -0.63090
N1717       N  0.84068382  0.47010596  0.07779770    -0.04920
N1718       N  0.83850102  0.48928330  0.06294451    -0.63780
Mn1719     Mn  0.87154529  0.43690234  0.08172956     1.10660
C1720       C  0.84880262  0.48913616  0.03620474     0.99190
C1721       C  0.92592519  0.01479592  0.11422790     0.99270
N1722       N  0.82948945  0.44288007  0.18898641    -0.06040
N1723       N  0.83043291  0.44872419  0.21745769    -0.61410
N1724       N  0.79528328  0.44642021  0.12938878    -0.05350
N1725       N  0.77859247  0.45542857  0.12061358    -0.58140
N1726       N  0.78137084  0.42321513  0.14439762    -0.06660
N1727       N  0.75489827  0.41600197  0.14590360    -0.60980
N1728       N  0.84289964  0.46605083  0.17400364    -0.05650
N1729       N  0.85342086  0.48798822  0.19174666    -0.58160
Mn1730     Mn  0.80300545  0.40304867  0.16548803     1.20190
Mn1731     Mn  0.84109421  0.46756672  0.12616441     1.10090
Cl1732     Cl  0.83660366  0.41975146  0.12271282    -0.86130
C1733       C  0.84559806  0.47696923  0.21867918     0.96200
C1734       C  0.75342139  0.43621797  0.13086690     0.96000
C1735       C  0.95769957  0.06223612  0.13297832    -0.16600
C1736       C  0.95341952  0.03834134  0.12091072    -0.31780
H1737       H  0.94065344  0.06414901  0.14153290     0.12420
H1738       H  0.97074237  0.03677896  0.11254583     0.13000
C1739       C  0.71117643  0.27608903  0.11486640    -0.16600
C1740       C  0.71595181  0.30081077  0.12512674    -0.31780
H1741       H  0.72714165  0.27440245  0.10319192     0.12420
H1742       H  0.69978905  0.30213742  0.13684229     0.13000
C1743       C  0.65785390  0.15359452  0.26350019    -0.16600
C1744       C  0.64613538  0.14011599  0.23802481    -0.31780
H1745       H  0.66302174  0.17509598  0.26674137     0.12420
H1746       H  0.64254304  0.11920313  0.23428230     0.13000
C1747       C  0.63952627  0.15231405  0.00104673    -0.16600
C1748       C  0.64925291  0.14299668  0.49554274    -0.31780
H1749       H  0.62885448  0.15175833  0.98069803     0.12420
H1750       H  0.62947542  0.14155558  0.49070716     0.13000
C1751       C  0.65637499  0.48865292  0.00452645    -0.16600
C1752       C  0.64893368  0.00943653  0.49734894    -0.31780
H1753       H  0.65121850  0.47728505  0.98364568     0.12420
H1754       H  0.62703919  0.99433578  0.49366920     0.13000
C1755       C  0.63817287  0.50353557  0.24064858    -0.16600
C1756       C  0.65649172  0.00164334  0.26432092    -0.31780
H1757       H  0.63333988  0.51994537  0.23743710     0.12420
H1758       H  0.66280699  0.98630803  0.26747555     0.13000
C1759       C  0.60199044  0.04255485  0.12530432    -0.16600
C1760       C  0.58125610  0.04624380  0.11612413    -0.31780
H1761       H  0.62038004  0.05953878  0.13600285     0.12420
H1762       H  0.56282165  0.02919573  0.10555275     0.13000
C1763       C  0.59149430  0.29021314  0.14301911    -0.16600
C1764       C  0.57176519  0.29453484  0.13166741    -0.31780
H1765       H  0.60932349  0.30704312  0.15461771     0.12420
H1766       H  0.55412339  0.27771064  0.11981712     0.13000
C1767       C  0.72821880  0.43872970  0.12790386    -0.16600
C1768       C  0.70403067  0.42074492  0.14058927    -0.31780
H1769       H  0.72997605  0.45636813  0.11595423     0.12420
H1770       H  0.70253439  0.40333750  0.15278933     0.13000
C1771       C  0.96859470  0.42063151  0.11312732    -0.16600
C1772       C  0.94380617  0.40077426  0.12264805    -0.31780
H1773       H  0.97070171  0.43924598  0.10306197     0.12420
H1774       H  0.94147879  0.38198125  0.13247815     0.13000
C1775       C  0.99120624  0.14720394  0.49995393    -0.16600
C1776       C  0.50092752  0.16404589  0.01987525    -0.31780
H1777       H  0.48170146  0.14566121  0.51900168     0.12420
H1778       H  0.48851304  0.17391246  0.02198723     0.13000
C1779       C  0.00381570  0.15737364  0.26200836    -0.16600
C1780       C  0.52617329  0.16373796  0.25620890    -0.31780
H1781       H  0.00204612  0.17416353  0.25223763     0.12420
H1782       H  0.53807288  0.16800720  0.27661417     0.13000
C1783       C  0.85489245  0.51065318  0.01370422    -0.16600
C1784       C  0.85929687  0.00554374  0.48361292    -0.31780
H1785       H  0.85078101  0.52732668  0.01877108     0.12420
H1786       H  0.86366833  0.98888231  0.47955100     0.13000
C1787       C  0.85299503  0.00795645  0.25256951    -0.16600
C1788       C  0.85148873  0.49402617  0.24556156    -0.31780
H1789       H  0.83135658  0.99194369  0.25521964     0.12420
H1790       H  0.84467978  0.48365129  0.26657534     0.13000
C1791       C  0.53551583  0.07906384  0.37808229    -0.16600
C1792       C  0.56056704  0.09880273  0.38774031    -0.31780
H1793       H  0.53287493  0.06001799  0.36809609     0.12420
H1794       H  0.56344022  0.11806221  0.39738875     0.13000
C1795       C  0.79156786  0.09299491  0.38050787    -0.16600
C1796       C  0.79766039  0.07620027  0.36555697    -0.31780
H1797       H  0.80774435  0.11060392  0.39305291     0.12420
H1798       H  0.78157568  0.05841706  0.35315383     0.13000
C1799       C  0.49663895  0.34003433  0.01373674    -0.16600
C1800       C  0.99254085  0.33426545  0.49366437    -0.31780
H1801       H  0.47602280  0.33076954  0.02300717     0.12420
H1802       H  0.01040194  0.33225348  0.48851388     0.13000
C1803       C  0.00533239  0.36429470  0.26480869    -0.16600
C1804       C  0.49813731  0.36452929  0.23632607    -0.31780
H1805       H  0.02698119  0.37388524  0.27168040     0.12420
H1806       H  0.47643983  0.35490144  0.22959877     0.13000
C1807       C  0.90267503  0.45922347  0.37142099    -0.16600
C1808       C  0.92428586  0.45613592  0.37817169    -0.31780
H1809       H  0.88170686  0.44126555  0.37118629     0.12420
H1810       H  0.94504231  0.47415603  0.38101147     0.13000
C1811       C  0.93916571  0.21361908  0.37290913    -0.16600
C1812       C  0.91739821  0.21729242  0.36816877    -0.31780
H1813       H  0.96007461  0.23161471  0.37252695     0.12420
H1814       H  0.89658231  0.19927226  0.36594820     0.13000
C1815       C  0.56634346  0.45547715  0.38527398    -0.16600
C1816       C  0.54023502  0.45008381  0.38238041    -0.31780
H1817       H  0.57033755  0.43878166  0.39040305     0.12420
H1818       H  0.53628986  0.46715645  0.37961204     0.13000
C1819       C  0.79202246  0.22828508  0.36259520    -0.16600
C1820       C  0.78876310  0.20376255  0.37074066    -0.31780
H1821       H  0.77411605  0.23102227  0.36173609     0.12420
H1822       H  0.80686449  0.20172830  0.37462720     0.13000
C1823       C  0.84436772  0.34843873  0.48481523    -0.16600
C1824       C  0.85117933  0.35446550  0.00665422    -0.31780
H1825       H  0.83908661  0.36338646  0.47627702     0.12420
H1826       H  0.87310286  0.36180702  0.01022307     0.13000
C1827       C  0.85956104  0.35763974  0.23226442    -0.16600
C1828       C  0.86141346  0.36542162  0.26051664    -0.31780
H1829       H  0.86773933  0.34436621  0.22585972     0.12420
H1830       H  0.85320885  0.37868247  0.26688492     0.13000
N1831       N  0.91826565  0.39613636  0.88814589    -0.06290
N1832       N  0.93050715  0.42355445  0.88837132    -0.58410
N1833       N  0.86702911  0.33711987  0.91468843    -0.05970
N1834       N  0.84469111  0.33028684  0.93023188    -0.60530
N1835       N  0.88939850  0.34834259  0.93179582    -0.05560
N1836       N  0.88263600  0.34944614  0.95933091    -0.58380
N1837       N  0.89573756  0.38488205  0.87149886    -0.05240
N1838       N  0.89168068  0.40439171  0.86038697    -0.60890
C1839       C  0.91371700  0.42831094  0.87101213     0.95890
C1840       C  0.85464843  0.33778637  0.95808790     0.95670
N1841       N  0.85497709  0.27993612  0.84821948    -0.06470
N1842       N  0.83538239  0.25328701  0.84655065    -0.58980
N1843       N  0.87486701  0.34214184  0.81884857    -0.04590
N1844       N  0.86835164  0.35628784  0.80057879    -0.60240
N1845       N  0.88421906  0.32808547  0.80438030    -0.06500
N1846       N  0.88430782  0.33244723  0.77577578    -0.59250
N1847       N  0.84558682  0.29443551  0.86171956    -0.04230
N1848       N  0.81951953  0.27825121  0.86924585    -0.60320
Mn1849     Mn  0.87025538  0.33962125  0.86661826     1.18440
C1850       C  0.81348143  0.25271938  0.85982281     0.97970
C1851       C  0.87442186  0.35013287  0.77384659     0.98640
N1852       N  0.94641781  0.34746582  0.93670487    -0.06520
N1853       N  0.95627652  0.35447916  0.96387459    -0.62830
N1854       N  0.98233055  0.38074844  0.87761980    -0.05320
N1855       N  0.50758444  0.40055222  0.87639736    -0.63500
N1856       N  0.97126994  0.39347445  0.89155106    -0.06030
N1857       N  0.98770499  0.42071792  0.89097362    -0.63090
N1858       N  0.95814009  0.33509793  0.92310989    -0.04920
N1859       N  0.97635870  0.33390621  0.94119762    -0.63780
Mn1860     Mn  0.93116415  0.37116548  0.91260674     1.10660
C1861       C  0.97454576  0.34564376  0.96678643     0.99190
C1862       C  0.50996015  0.42394763  0.88856974     0.99270
N1863       N  0.93825792  0.32420710  0.80889036    -0.06040
N1864       N  0.94450164  0.32785710  0.78067752    -0.61410
N1865       N  0.93315943  0.28888758  0.86995616    -0.05350
N1866       N  0.93788148  0.26975753  0.88096924    -0.58140
N1867       N  0.91007224  0.27692585  0.85382140    -0.06660
N1868       N  0.89844243  0.24950785  0.85397864    -0.60980
N1869       N  0.96102864  0.33639601  0.82537130    -0.05650
N1870       N  0.98324569  0.34854304  0.80863655    -0.58160
Mn1871     Mn  0.89654130  0.30145635  0.82812194     1.20190
Mn1872     Mn  0.95930459  0.33492937  0.87401518     1.10090
Cl1873     Cl  0.91419334  0.33629659  0.87061351    -0.86130
C1874       C  0.97255945  0.34303862  0.78082042     0.96200
C1875       C  0.91594630  0.24538626  0.87098442     0.96000
N1876       N  0.96305022  0.11282275  0.81409758    -0.06290
N1877       N  0.97309746  0.11767418  0.78717290    -0.58410
N1878       N  0.99421704  0.11611738  0.87836095    -0.05970
N1879       N  0.51926560  0.12491243  0.89162153    -0.60530
N1880       N  0.98491556  0.09238760  0.86393197    -0.05560
N1881       N  0.00193718  0.08279935  0.86737991    -0.58380
N1882       N  0.97221820  0.13658168  0.82871452    -0.05240
N1883       N  0.98863786  0.15787833  0.81203318    -0.60890
C1884       C  0.98874638  0.14586501  0.78611103     0.95890
C1885       C  0.52381954  0.10389645  0.88459205     0.95670
N1886       N  0.94586716  0.12750927  0.93965459    -0.06470
N1887       N  0.95138902  0.13019248  0.96837306    -0.58980
N1888       N  0.94588287  0.15806551  0.87673260    -0.04590
N1889       N  0.95390536  0.18344867  0.86762501    -0.60240
N1890       N  0.92210906  0.14756438  0.89057314    -0.06500
N1891       N  0.91336764  0.16563548  0.89080870    -0.59250
N1892       N  0.96912684  0.13800541  0.92492537    -0.04230
N1893       N  0.99072755  0.14781627  0.94297194    -0.60320
Mn1894     Mn  0.97068272  0.13777871  0.87707814     1.18440
C1895       C  0.97953700  0.14335307  0.96986560     0.97970
C1896       C  0.93336261  0.18776180  0.87622428     0.98640
N1897       N  0.93127454  0.03523361  0.86358393    -0.06520
N1898       N  0.94291422  0.01986665  0.86657257    -0.62830
N1899       N  0.88286525  0.04123928  0.82752462    -0.05320
N1900       N  0.86231193  0.02297970  0.81028989    -0.63500
N1901       N  0.90658565  0.05244436  0.81351170    -0.06030
N1902       N  0.90248432  0.04191983  0.78649272    -0.63090
N1903       N  0.90744143  0.02394296  0.87721111    -0.04920
N1904       N  0.88195825  0.49518710  0.87603594    -0.63780
Mn1905     Mn  0.94646377  0.07321176  0.83809369     1.10660
C1906       C  0.90073525  0.48842504  0.86701635     0.99190
C1907       C  0.87477194  0.02382034  0.78472514     0.99270
N1908       N  0.86609609  0.08807496  0.88904447    -0.06040
N1909       N  0.84673793  0.09497365  0.88787070    -0.61410
N1910       N  0.88061687  0.04479400  0.92388122    -0.05350
N1911       N  0.86860031  0.02309885  0.94128005    -0.58140
N1912       N  0.88904266  0.06815254  0.93893020    -0.06660
N1913       N  0.88280109  0.06264488  0.96711241    -0.60980
N1914       N  0.85761205  0.06437020  0.87456898    -0.05650
N1915       N  0.83238473  0.05466627  0.86340756    -0.58160
Mn1916     Mn  0.90541285  0.10820854  0.91531955     1.20190
Mn1917     Mn  0.88165314  0.04319737  0.87573338     1.10090
Cl1918     Cl  0.92579448  0.09078702  0.87629069    -0.86130
C1919       C  0.82596785  0.07407049  0.87160646     0.96200
C1920       C  0.87008509  0.03439963  0.96815894     0.96000
N1921       N  0.55524549  0.38028140  0.68555303    -0.06290
N1922       N  0.54683628  0.37828525  0.71324360    -0.58410
N1923       N  0.55867093  0.34822274  0.62204313    -0.05970
N1924       N  0.55270052  0.32435873  0.60923681    -0.60530
N1925       N  0.58043270  0.35728731  0.63979905    -0.05560
N1926       N  0.59006484  0.34002777  0.63901532    -0.58380
N1927       N  0.53354877  0.36966219  0.66751842    -0.05240
N1928       N  0.51037440  0.36060304  0.68205277    -0.60890
C1929       C  0.51863637  0.36596002  0.71041842     0.95890
C1930       C  0.57264126  0.31969692  0.61982706     0.95670
N1931       N  0.54796675  0.39751509  0.55871777    -0.06470
N1932       N  0.54120004  0.39483992  0.53051528    -0.58980
N1933       N  0.51458202  0.39362798  0.61954110    -0.04590
N1934       N  0.99197181  0.38910133  0.64090311    -0.60240
N1935       N  0.52504426  0.41826169  0.60746760    -0.06500
N1936       N  0.50680857  0.42670202  0.60859959    -0.59250
N1937       N  0.53688469  0.37287726  0.57107882    -0.04230
N1938       N  0.52167220  0.35294524  0.55139282    -0.60320
Mn1939     Mn  0.53578547  0.37034641  0.61971064     1.18440
C1940       C  0.52506855  0.36707608  0.52609271     0.97970
C1941       C  0.98673027  0.40865306  0.63072059     0.98640
N1942       N  0.63732688  0.41218612  0.64345971    -0.06520
N1943       N  0.65375733  0.40172634  0.64576720    -0.62830
N1944       N  0.62821188  0.46062597  0.67310542    -0.05320
N1945       N  0.63893545  0.48301275  0.69024621    -0.63500
N1946       N  0.61619787  0.43777500  0.68882599    -0.06030
N1947       N  0.61927196  0.44439803  0.71734891    -0.63090
N1948       N  0.64902287  0.43505408  0.62764225    -0.04920
N1949       N  0.67400955  0.44081068  0.61940514    -0.63780
Mn1950     Mn  0.59735520  0.39657509  0.66566718     1.10660
C1951       C  0.67641292  0.41957659  0.63063446     0.99190
C1952       C  0.63365745  0.47277880  0.71763918     0.99270
N1953       N  0.58401519  0.47530045  0.61123937    -0.06040
N1954       N  0.57538898  0.49323589  0.61470267    -0.61410
N1955       N  0.62918229  0.46302569  0.57578509    -0.05350
N1956       N  0.64998376  0.47824369  0.55778952    -0.58140
N1957       N  0.60526047  0.45350575  0.56160507    -0.06660
N1958       N  0.60929767  0.46108051  0.53378253    -0.60980
N1959       N  0.60802557  0.48453406  0.62496795    -0.05650
N1960       N  0.61739400  0.00827649  0.64757736    -0.58160
Mn1961     Mn  0.56537093  0.43648413  0.58448400     1.20190
Mn1962     Mn  0.62949760  0.46110972  0.62495463     1.10090
Cl1963     Cl  0.58217596  0.41610749  0.62352884    -0.86130
C1964       C  0.59760372  0.01396742  0.63910515     0.96200
C1965       C  0.63714203  0.47638734  0.53152332     0.96000
N1966       N  0.72763876  0.14215285  0.89584114    -0.06290
N1967       N  0.75454111  0.15866396  0.89232262    -0.58410
N1968       N  0.66899992  0.12782560  0.92851082    -0.05970
N1969       N  0.65772505  0.13816270  0.94617302    -0.60530
N1970       N  0.68310088  0.11899580  0.94381972    -0.05560
N1971       N  0.68194782  0.12351167  0.97232281    -0.58380
N1972       N  0.71354349  0.15111637  0.88071360    -0.05240
N1973       N  0.73074113  0.17440836  0.86704151    -0.60890
C1974       C  0.75617936  0.17863914  0.87447967     0.95890
C1975       C  0.66593435  0.13535631  0.97340421     0.95670
N1976       N  0.60995120  0.07621277  0.86624748    -0.06470
N1977       N  0.58277839  0.06504082  0.86658125    -0.58980
N1978       N  0.66479986  0.12479653  0.83126635    -0.04590
N1979       N  0.66833531  0.14444335  0.81250742    -0.60240
N1980       N  0.65302581  0.10033580  0.81764908    -0.06500
N1981       N  0.64907016  0.10287173  0.78945066    -0.59250
N1982       N  0.62233790  0.10064288  0.87989716    -0.04230
N1983       N  0.60384529  0.10668376  0.88976189    -0.60320
Mn1984     Mn  0.66766165  0.12697637  0.88007445     1.18440
C1985       C  0.57929182  0.08410725  0.88150287     0.97970
C1986       C  0.65877315  0.13035846  0.78646012     0.98640
N1987       N  0.68728805  0.06318171  0.94412973    -0.06520
N1988       N  0.68703132  0.05838858  0.97269307    -0.62830
N1989       N  0.72057661  0.06567393  0.88150498    -0.05320
N1990       N  0.74028573  0.06155357  0.87107659    -0.63500
N1991       N  0.73179227  0.08918357  0.89692245    -0.06030
N1992       N  0.75905403  0.10170733  0.89694585    -0.63090
N1993       N  0.67599775  0.03950282  0.92895815    -0.04920
N1994       N  0.66771427  0.01820934  0.94688760    -0.63780
Mn1995     Mn  0.70769980  0.10359027  0.92107323     1.10660
C1996       C  0.67474615  0.03023862  0.97408667     0.99190
C1997       C  0.76413933  0.08447414  0.88075844     0.99270
N1998       N  0.65731848  0.04631863  0.81761715    -0.06040
N1999       N  0.65363906  0.03914344  0.78947417    -0.61410
N2000       N  0.62920081  0.01306806  0.87941665    -0.05350
N2001       N  0.60965063  0.48749743  0.89349894    -0.58140
N2002       N  0.61426423  0.02201355  0.86601503    -0.06660
N2003       N  0.58764448  0.00304207  0.86678746    -0.60980
N2004       N  0.67184062  0.03685754  0.83105507    -0.05650
N2005       N  0.67760273  0.02226064  0.81212763    -0.58160
Mn2006     Mn  0.63343106  0.06109298  0.84165367     1.20190
Mn2007     Mn  0.67474103  0.03821370  0.88010061     1.10090
Cl2008     Cl  0.67091389  0.08245442  0.88070114    -0.86130
C2009       C  0.66653685  0.02444686  0.78620915     0.96200
C2010       C  0.58423164  0.48161106  0.88427247     0.96000
N2011       N  0.52939199  0.11340758  0.60784838    -0.06290
N2012       N  0.51049465  0.08671274  0.60871544    -0.58410
N2013       N  0.54843212  0.17192224  0.57299932    -0.05970
N2014       N  0.53349265  0.17603991  0.55289400    -0.60530
N2015       N  0.55902197  0.15770942  0.56115871    -0.05560
N2016       N  0.55226065  0.15276143  0.53289240    -0.58380
N2017       N  0.52011018  0.12849553  0.62004908    -0.05240
N2018       N  0.99399235  0.11302181  0.62983870    -0.60890
C2019       C  0.98834036  0.08698610  0.62277196     0.95890
C2020       C  0.53656564  0.16439617  0.52787001     0.95670
N2021       N  0.59527635  0.23027660  0.64340461    -0.06470
N2022       N  0.60675835  0.25762195  0.64493897    -0.58980
N2023       N  0.54219533  0.17269167  0.66985478    -0.04590
N2024       N  0.51874260  0.15920342  0.68422055    -0.60240
N2025       N  0.56365437  0.18360714  0.68828032    -0.06500
N2026       N  0.55496892  0.17810014  0.71581264    -0.59250
N2027       N  0.57351768  0.21929793  0.62535555    -0.04230
N2028       N  0.56959106  0.23905426  0.61461311    -0.60320
Mn2029     Mn  0.54580890  0.17371042  0.62182921     1.18440
C2030       C  0.59071454  0.26282100  0.62680433     0.97970
C2031       C  0.52685987  0.16298299  0.71273103     0.98640
N2032       N  0.61238209  0.15167305  0.57040712    -0.06520
N2033       N  0.61853751  0.14741373  0.54367378    -0.62830
N2034       N  0.60330086  0.11785263  0.63307526    -0.05320
N2035       N  0.60644284  0.09770862  0.64424908    -0.63500
N2036       N  0.58097899  0.10713332  0.61597180    -0.06030
N2037       N  0.56831617  0.07970827  0.61535195    -0.63090
N2038       N  0.63465094  0.16260065  0.58765965    -0.04920
N2039       N  0.65634042  0.16581153  0.57296900    -0.63780
Mn2040     Mn  0.57052445  0.13251064  0.58844154     1.10660
C2041       C  0.64600254  0.15653852  0.54551994     0.99190
C2042       C  0.58419416  0.07406672  0.63315379     0.99270
N2043       N  0.61850164  0.17917202  0.69697336    -0.06040
N2044       N  0.62232318  0.17931473  0.72586647    -0.61410
N2045       N  0.65724471  0.20965898  0.63776950    -0.05350
N2046       N  0.68264170  0.22594382  0.62792090    -0.58140
N2047       N  0.64818353  0.22471078  0.65080941    -0.06720
N2048       N  0.66717984  0.25150812  0.64997190    -0.60980
N2049       N  0.62750153  0.16423951  0.68363679    -0.05650
N2050       N  0.63747405  0.15390292  0.70299794    -0.58160
Mn2051     Mn  0.60656385  0.20500798  0.67078219     1.20190
Mn2052     Mn  0.63127098  0.16361518  0.63564767     1.10090
Cl2053     Cl  0.58879136  0.16908863  0.62900419    -0.86130
C2054       C  0.63408591  0.16334439  0.72923694     0.96200
C2055       C  0.68852996  0.25199472  0.63559301     0.96000
N2056       N  0.89192251  0.42241993  0.59958149    -0.06290
N2057       N  0.91895196  0.43353259  0.59764786    -0.58410
N2058       N  0.83087595  0.37247942  0.57648443    -0.05970
N2059       N  0.82635073  0.34962546  0.56234539    -0.60530
N2060       N  0.84146644  0.39387672  0.55848693    -0.05560
N2061       N  0.84400949  0.38563487  0.53188810    -0.58380
N2062       N  0.88142276  0.40148728  0.61792929    -0.05240
N2063       N  0.90142038  0.39773330  0.62873469    -0.60890
C2064       C  0.92470860  0.41815439  0.61585089     0.95890
C2065       C  0.83414921  0.35794526  0.53447708     0.95670
N2066       N  0.77949505  0.37000459  0.64625206    -0.06470
N2067       N  0.75271345  0.35289428  0.65015339    -0.58980
N2068       N  0.84155646  0.38534270  0.67267809    -0.04590
N2069       N  0.85384951  0.37628421  0.69065704    -0.60240
N2070       N  0.83049580  0.39757881  0.68763799    -0.06500
N2071       N  0.83512526  0.39710295  0.71618686    -0.59250
N2072       N  0.79029879  0.35721103  0.63176419    -0.04230
N2073       N  0.77092409  0.33099374  0.62573897    -0.60320
Mn2074     Mn  0.83584430  0.37838792  0.62483460     1.18440
C2075       C  0.74756678  0.32874552  0.63719957     0.97970
C2076       C  0.84981019  0.38389363  0.71764380     0.98640
N2077       N  0.84429253  0.45417822  0.55408589    -0.06520
N2078       N  0.84830574  0.46330639  0.52672499    -0.62830
N2079       N  0.88354181  0.49040985  0.61219402    -0.05320
N2080       N  0.90536240  0.01186517  0.62320918    -0.63500
N2081       N  0.89362997  0.47769090  0.59661704    -0.06030
N2082       N  0.92093003  0.49198803  0.59731504    -0.63090
N2083       N  0.83407112  0.46688951  0.56970986    -0.04920
N2084       N  0.83076631  0.48446213  0.55323928    -0.63780
Mn2085     Mn  0.86741956  0.43680235  0.57642360     1.10660
C2086       C  0.83944914  0.48191115  0.52647734     0.99190
C2087       C  0.92823288  0.01362840  0.61127201     0.99270
N2088       N  0.83191508  0.45536828  0.68354928    -0.06040
N2089       N  0.83745049  0.46468609  0.71123388    -0.61410
N2090       N  0.79383679  0.44950831  0.62356414    -0.05350
N2091       N  0.77600903  0.45602492  0.61238925    -0.58140
N2092       N  0.78123539  0.42784003  0.64089519    -0.06660
N2093       N  0.75443334  0.41910729  0.64180225    -0.60980
N2094       N  0.84456356  0.47629832  0.66540691    -0.05650
N2095       N  0.85927580  0.50008424  0.68004414    -0.58160
Mn2096     Mn  0.80517796  0.41242022  0.66537409     1.20190
Mn2097     Mn  0.83883389  0.47112845  0.61769417     1.10090
Cl2098     Cl  0.83646050  0.42442571  0.62085020    -0.86130
C2099       C  0.85454745  0.49267169  0.70848879     0.96200
C2100       C  0.75152402  0.43682620  0.62378782     0.96000
C2101       C  0.96114532  0.06188732  0.62614391    -0.16600
C2102       C  0.95624486  0.03761727  0.61439747    -0.31780
H2103       H  0.94451164  0.06387155  0.63579796     0.12420
H2104       H  0.97283475  0.03596004  0.60412981     0.13000
C2105       C  0.71554296  0.27759661  0.63032247    -0.16600
C2106       C  0.72023036  0.30285355  0.63882901    -0.31780
H2107       H  0.73200247  0.27552915  0.62035101     0.12420
H2108       H  0.70365188  0.30461455  0.64896513     0.13000
C2109       C  0.65476572  0.14159347  0.75882535    -0.16600
C2110       C  0.64327744  0.15775276  0.75777750    -0.31780
H2111       H  0.65722666  0.13259542  0.73855643     0.12420
H2112       H  0.63914262  0.16548652  0.77800343     0.13000
C2113       C  0.66117020  0.15171924  0.52216927    -0.16600
C2114       C  0.65866601  0.14444788  0.00089615    -0.31780
H2115       H  0.68169247  0.15491035  0.52681745     0.12420
H2116       H  0.66804926  0.14321276  0.02146434     0.13000
C2117       C  0.65047752  0.49159836  0.50418841    -0.16600
C2118       C  0.66909027  0.01464139  0.00199303    -0.31780
H2119       H  0.64131265  0.48066618  0.48347270     0.12420
H2120       H  0.67342735  0.02621077  0.02267849     0.13000
C2121       C  0.63942725  0.49116329  0.74340629    -0.16600
C2122       C  0.66320853  0.00845937  0.75893878    -0.31780
H2123       H  0.63425842  0.50740967  0.74076284     0.12420
H2124       H  0.67050924  0.02021794  0.73876414     0.13000
C2125       C  0.59933985  0.04079390  0.64538976    -0.16600
C2126       C  0.57993189  0.04584221  0.63480794    -0.31780
H2127       H  0.61795452  0.05730007  0.65624570     0.12420
H2128       H  0.56153163  0.02922869  0.62370729     0.13000
C2129       C  0.59307914  0.29028747  0.62587834    -0.16600
C2130       C  0.57314218  0.29393878  0.61398516    -0.31780
H2131       H  0.61026436  0.30723915  0.63812989     0.12420
H2132       H  0.55579261  0.27705316  0.60188907     0.13000
C2133       C  0.72558280  0.43719633  0.61920765    -0.16600
C2134       C  0.70170342  0.41765291  0.63078337    -0.31780
H2135       H  0.72646378  0.45450055  0.60736661     0.12420
H2136       H  0.70099123  0.40036814  0.64251996     0.13000
C2137       C  0.95932226  0.40619628  0.63353404    -0.16600
C2138       C  0.95300826  0.42282144  0.61852883    -0.31780
H2139       H  0.94346589  0.38900272  0.64602364     0.12420
H2140       H  0.96893259  0.43969535  0.60575101     0.13000
C2141       C  0.99602840  0.14628230  0.99625520    -0.16600
C2142       C  0.52070698  0.15931150  0.49986858    -0.31780
H2143       H  0.51178408  0.13975365  0.99370142     0.12420
H2144       H  0.53148294  0.16029608  0.47973613     0.13000
C2145       C  0.00854041  0.16124666  0.76253667    -0.16600
C2146       C  0.50707740  0.14883829  0.73652309    -0.31780
H2147       H  0.02464707  0.18280970  0.76669538     0.12420
H2148       H  0.48955039  0.12809440  0.73174806     0.13000
C2149       C  0.84573854  0.50255578  0.50316210    -0.16600
C2150       C  0.85859450  0.01761106  0.99498683    -0.31780
H2151       H  0.84187737  0.51954978  0.50730633     0.12420
H2152       H  0.86186748  0.02831101  0.01608516     0.13000
C2153       C  0.86082694  0.00325665  0.76057793    -0.16600
C2154       C  0.86809329  0.51308435  0.73280564    -0.31780
H2155       H  0.83924567  0.98699014  0.76300179     0.12420
H2156       H  0.88965643  0.52918209  0.72996495     0.13000
C2157       C  0.54973678  0.10416829  0.89114014    -0.16600
C2158       C  0.55232623  0.08238722  0.88295558    -0.31780
H2159       H  0.56736688  0.12312353  0.90017060     0.12420
H2160       H  0.53454104  0.06357123  0.87386997     0.13000
C2161       C  0.79242108  0.08932817  0.87820744    -0.16600
C2162       C  0.79806377  0.07030782  0.86751479    -0.31780
H2163       H  0.80903441  0.10857520  0.88804843     0.12420
H2164       H  0.78163849  0.05086918  0.85784658     0.13000
C2165       C  0.50880550  0.35569899  0.49855489    -0.16600
C2166       C  0.99696162  0.35891721  0.98934237    -0.31780
H2167       H  0.51374690  0.37057532  0.48091509     0.12420
H2168       H  0.00251612  0.37996561  0.99606786     0.13000
C2169       C  0.98884580  0.35187833  0.75354661    -0.16600
C2170       C  0.49798948  0.35843581  0.73404372    -0.31780
H2171       H  0.97717704  0.34602925  0.73285673     0.12420
H2172       H  0.47622245  0.34702331  0.72735754     0.13000
C2173       C  0.89644445  0.46030947  0.86868359    -0.16600
C2174       C  0.91783330  0.45607382  0.86682402    -0.31780
H2175       H  0.87568637  0.44303211  0.87292076     0.12420
H2176       H  0.93894717  0.47358314  0.86528174     0.13000
C2177       C  0.93518241  0.21490508  0.87361009    -0.16600
C2178       C  0.91294483  0.21786246  0.87518764    -0.31780
H2179       H  0.95541676  0.23292596  0.86912852     0.12420
H2180       H  0.89227464  0.19969993  0.87702265     0.13000
C2181       C  0.55941116  0.45460123  0.88826327    -0.16600
C2182       C  0.53425095  0.45153333  0.88582010    -0.31780
H2183       H  0.56183667  0.43690039  0.89342840     0.12420
H2184       H  0.53157178  0.46943003  0.88320542     0.13000
C2185       C  0.78599144  0.22785053  0.86336080    -0.16600
C2186       C  0.78278684  0.20248644  0.86567385    -0.31780
H2187       H  0.76850541  0.23083270  0.86720665     0.12420
H2188       H  0.80075355  0.19987245  0.86471652     0.13000
C2189       C  0.83835696  0.34039507  0.98192885    -0.16600
C2190       C  0.84058798  0.34180022  0.51329786    -0.31780
H2191       H  0.81679768  0.33415213  0.97762887     0.12420
H2192       H  0.84457079  0.32589086  0.52164469     0.13000
C2193       C  0.85779736  0.37625402  0.74542384    -0.16600
C2194       C  0.86925208  0.36006874  0.74592010    -0.31780
H2195       H  0.85291309  0.38300051  0.76587334     0.12420
H2196       H  0.87390057  0.35306349  0.72549838     0.13000
N2197       N  0.92072784  0.89372601  0.39189156    -0.06290
N2198       N  0.93246457  0.92110584  0.39184179    -0.58410
N2199       N  0.86951682  0.83335311  0.41473815    -0.05970
N2200       N  0.84661768  0.82904825  0.42765874    -0.60530
N2201       N  0.89063313  0.84461656  0.43364760    -0.05560
N2202       N  0.88219713  0.84768363  0.45976960    -0.58380
N2203       N  0.89933488  0.88205620  0.37353403    -0.05240
N2204       N  0.89563176  0.90122328  0.36090946    -0.60890
C2205       C  0.91661155  0.92537961  0.37249564     0.95890
C2206       C  0.85464339  0.83751086  0.45584875     0.95670
N2207       N  0.86732407  0.77961819  0.34636342    -0.06470
N2208       N  0.85171319  0.75211420  0.34696564    -0.58980
N2209       N  0.88309244  0.84174214  0.31938492    -0.04590
N2210       N  0.87464323  0.85453663  0.30135307    -0.60240
N2211       N  0.89550435  0.83068919  0.30483520    -0.06500
N2212       N  0.89554807  0.83573631  0.27630658    -0.59250
N2213       N  0.85507236  0.79124591  0.36024131    -0.04230
N2214       N  0.83072641  0.77194372  0.37010175    -0.60320
Mn2215     Mn  0.87605089  0.83678615  0.36686352     1.18440
C2216       C  0.82892130  0.74768148  0.36160847     0.97970
C2217       C  0.88256416  0.85077738  0.27455532     0.98640
N2218       N  0.94826751  0.84495400  0.44255184    -0.06520
N2219       N  0.95399185  0.84754980  0.47114318    -0.62830
N2220       N  0.98801641  0.88269387  0.38715371    -0.05320
N2221       N  0.51178395  0.90221101  0.37718974    -0.63500
N2222       N  0.97529676  0.89411389  0.40029412    -0.06030
N2223       N  0.99047277  0.92156740  0.39971119    -0.63090
N2224       N  0.96136035  0.83395085  0.42909289    -0.04920
N2225       N  0.97659565  0.82948681  0.44831935    -0.63780
Mn2226     Mn  0.93363554  0.86923291  0.41776749     1.10660
C2227       C  0.97136432  0.83752742  0.47450432     0.99190
C2228       C  0.51297068  0.92626638  0.38537540     0.99270
N2229       N  0.95331557  0.83135381  0.31379670    -0.06040
N2230       N  0.96343345  0.83716207  0.28683920    -0.61410
N2231       N  0.94409775  0.79138832  0.37320212    -0.05350
N2232       N  0.94846353  0.77204630  0.38452724    -0.58140
N2233       N  0.92308023  0.77993868  0.35418205    -0.06660
N2234       N  0.91235817  0.75261932  0.35274404    -0.60980
N2235       N  0.97381500  0.84242481  0.33338462    -0.05650
N2236       N  0.99805492  0.85598453  0.32037376    -0.58160
Mn2237     Mn  0.90964680  0.80494125  0.32866122     1.20190
Mn2238     Mn  0.96725746  0.83726156  0.38092755     1.10090
Cl2239     Cl  0.92143251  0.83658789  0.37378091    -0.86130
C2240       C  0.99141088  0.85266450  0.29141637     0.96200
C2241       C  0.92838960  0.74797354  0.37160029     0.96000
N2242       N  0.96666635  0.61176962  0.31664261    -0.06290
N2243       N  0.97749117  0.61843595  0.29018920    -0.58410
N2244       N  0.98879144  0.60126384  0.38139988    -0.05970
N2245       N  0.51035089  0.60407610  0.39683850    -0.60530
N2246       N  0.97734648  0.57935915  0.36354399    -0.05560
N2247       N  0.99041611  0.56535919  0.36495108    -0.58380
N2248       N  0.97781296  0.63391014  0.33421180    -0.05240
N2249       N  0.99665830  0.65604818  0.31997107    -0.60890
C2250       C  0.99597048  0.64612392  0.29243142     0.95890
C2251       C  0.51103810  0.58126506  0.38691260     0.95670
N2252       N  0.94045938  0.61614419  0.44197004    -0.06470
N2253       N  0.94336705  0.62118044  0.47081989    -0.58980
N2254       N  0.95102586  0.65501897  0.38308477    -0.04590
N2255       N  0.96195117  0.68149620  0.37593832    -0.60240
N2256       N  0.92597456  0.64535940  0.39394397    -0.06500
N2257       N  0.91939613  0.66511560  0.39398511    -0.59250
N2258       N  0.96502995  0.62561819  0.43011291    -0.04230
N2259       N  0.98489543  0.63739869  0.45042720    -0.60320
Mn2260     Mn  0.97136189  0.62955692  0.38233156     1.18440
C2261       C  0.97123130  0.63447548  0.47571027     0.97970
C2262       C  0.94199393  0.68747056  0.38258400     0.98640
N2263       N  0.92039736  0.52736998  0.35245977    -0.06520
N2264       N  0.92786145  0.50837101  0.35403721    -0.62830
N2265       N  0.88205782  0.54773077  0.31673731    -0.05320
N2266       N  0.86292061  0.53440686  0.29598456    -0.63500
N2267       N  0.90702840  0.55862483  0.30564658    -0.06030
N2268       N  0.90537608  0.55344967  0.27709275    -0.63090
N2269       N  0.89558946  0.51771296  0.36328537    -0.04920
N2270       N  0.88289353  0.99030432  0.37412270    -0.63780
Mn2271     Mn  0.94296213  0.56939795  0.33408779     1.10660
C2272       C  0.90219420  0.98426286  0.36523174     0.99190
C2273       C  0.87783811  0.53870587  0.27134495     0.99270
N2274       N  0.86588766  0.58983789  0.38387583    -0.06040
N2275       N  0.84763530  0.59829571  0.38416278    -0.61410
N2276       N  0.87202417  0.53820558  0.41189665    -0.05350
N2277       N  0.86157587  0.51438686  0.42578385    -0.58140
N2278       N  0.88124888  0.55939740  0.43066300    -0.06660
N2279       N  0.87670601  0.55006244  0.45805037    -0.60980
N2280       N  0.85700822  0.56815394  0.36588629    -0.05650
N2281       N  0.83284692  0.56141842  0.35372773    -0.58160
Mn2282     Mn  0.90284528  0.60294477  0.41344925     1.20190
Mn2283     Mn  0.87620944  0.54282201  0.36434355     1.10090
Cl2284     Cl  0.92336883  0.58664268  0.37358332    -0.86130
C2285       C  0.82733119  0.58048639  0.36497261     0.96200
C2286       C  0.86428003  0.52188563  0.45438622     0.96000
N2287       N  0.55883254  0.88818127  0.18873444    -0.06290
N2288       N  0.55104186  0.88534972  0.21664616    -0.58410
N2289       N  0.55815168  0.84999063  0.13032494    -0.05970
N2290       N  0.55020022  0.82484142  0.11961363    -0.60530
N2291       N  0.58057977  0.85927199  0.14710192    -0.05560
N2292       N  0.58846561  0.84056245  0.14795935    -0.58380
N2293       N  0.53687028  0.87870756  0.17118277    -0.05240
N2294       N  0.51404899  0.86966152  0.18638268    -0.60890
C2295       C  0.52298647  0.87393896  0.21459381     0.95890
C2296       C  0.56933924  0.81927085  0.13066094     0.95670
N2297       N  0.55164914  0.89375427  0.05944952    -0.06470
N2298       N  0.54477314  0.88700586  0.03142554    -0.58980
N2299       N  0.51972152  0.90080901  0.11749716    -0.04590
N2300       N  0.99513329  0.88837500  0.13385582    -0.60240
N2301       N  0.53222600  0.92347504  0.10170370    -0.06500
N2302       N  0.51725757  0.93562498  0.10019162    -0.59250
N2303       N  0.53978926  0.87122968  0.07560539    -0.04230
N2304       N  0.52477679  0.84875288  0.05887143    -0.60320
Mn2305     Mn  0.53819236  0.87461263  0.12363179     1.18440
C2306       C  0.52833447  0.85882657  0.03128390     0.97970
C2307       C  0.99114148  0.90938450  0.12617320     0.98640
N2308       N  0.63986783  0.91328663  0.14736933    -0.06520
N2309       N  0.65514229  0.90155527  0.15066381    -0.62830
N2310       N  0.63254520  0.96577367  0.17112861    -0.05320
N2311       N  0.64294845  0.98932028  0.18647787    -0.63500
N2312       N  0.62028940  0.94412183  0.18858216    -0.06030
N2313       N  0.62280649  0.95277393  0.21643662    -0.63090
N2314       N  0.65223556  0.93501507  0.12997246    -0.04920
N2315       N  0.67635140  0.93853958  0.12135964    -0.63780
Mn2316     Mn  0.60013246  0.90101031  0.16908482     1.10660
C2317       C  0.67772434  0.91734266  0.13429424     0.99190
C2318       C  0.63713200  0.98109018  0.21463672     0.99270
N2319       N  0.59087202  0.97703974  0.10192580    -0.06040
N2320       N  0.58212469  0.99504295  0.10249334    -0.61410
N2321       N  0.63448022  0.95965000  0.07373860    -0.05350
N2322       N  0.65548135  0.97446403  0.05588210    -0.58140
N2323       N  0.61083827  0.94858912  0.05868209    -0.06660
N2324       N  0.61532038  0.95477811  0.03056549    -0.60980
N2325       N  0.61409393  0.98677157  0.11737005    -0.05650
N2326       N  0.61223751  0.50951331  0.12554370    -0.58160
Mn2327     Mn  0.57130502  0.93580236  0.07991503     1.20190
Mn2328     Mn  0.63425963  0.96217329  0.12288203     1.10090
Cl2329     Cl  0.58612507  0.91836055  0.12381420    -0.86130
C2330       C  0.59100165  0.51140563  0.11338912     0.96200
C2331       C  0.64311314  0.97062757  0.02893502     0.96000
N2332       N  0.73074668  0.64913379  0.39859866    -0.06290
N2333       N  0.75720119  0.66839597  0.39553414    -0.58410
N2334       N  0.67421467  0.63284951  0.43604625    -0.05970
N2335       N  0.66423640  0.64327326  0.45514851    -0.60530
N2336       N  0.68938671  0.62427694  0.44948156    -0.05560
N2337       N  0.69019808  0.62884878  0.47824594    -0.58380
N2338       N  0.71474314  0.65701568  0.38563150    -0.05240
N2339       N  0.72974818  0.68188795  0.37404321    -0.60890
C2340       C  0.75612938  0.68859206  0.38006696     0.95890
C2341       C  0.67434128  0.64069842  0.48132654     0.95670
N2342       N  0.61059987  0.58205979  0.37743813    -0.06470
N2343       N  0.58374965  0.57253585  0.38040000    -0.58980
N2344       N  0.66380786  0.63060075  0.34023254    -0.04590
N2345       N  0.66676500  0.65146516  0.32392954    -0.60240
N2346       N  0.64990348  0.60673504  0.32550837    -0.06500
N2347       N  0.64326032  0.61107624  0.29881940    -0.59250
N2348       N  0.62502284  0.60609424  0.39164736    -0.04230
N2349       N  0.60861226  0.61331579  0.40463229    -0.60320
Mn2350     Mn  0.66961075  0.63200808  0.38823590     1.18440
C2351       C  0.58297326  0.59217991  0.39775352     0.97970
C2352       C  0.65412449  0.63908839  0.29811351     0.98640
N2353       N  0.69260106  0.56862015  0.44594918    -0.06520
N2354       N  0.69136236  0.56344237  0.47452942    -0.62830
N2355       N  0.72262483  0.57208396  0.38049337    -0.05320
N2356       N  0.74200930  0.56819831  0.36860068    -0.63500
N2357       N  0.73450641  0.59551986  0.39606018    -0.06030
N2358       N  0.76168811  0.60817828  0.39480105    -0.63090
N2359       N  0.67992574  0.54502818  0.43061083    -0.04920
N2360       N  0.66966413  0.52345474  0.44845493    -0.63780
Mn2361     Mn  0.71224523  0.60947382  0.42323874     1.10660
C2362       C  0.67702347  0.53516136  0.47580923     0.99190
C2363       C  0.76621363  0.59120929  0.37760436     0.99270
N2364       N  0.65384513  0.55049705  0.32083766    -0.06040
N2365       N  0.64594507  0.53948951  0.29396393    -0.61410
N2366       N  0.63097484  0.51814171  0.38339680    -0.05350
N2367       N  0.61223121  0.99222353  0.38592560    -0.58140
N2368       N  0.61465055  0.52643229  0.37193341    -0.06660
N2369       N  0.58861720  0.50566681  0.37131964    -0.60980
N2370       N  0.67031201  0.54253602  0.33290811    -0.05650
N2371       N  0.67347151  0.52584109  0.31438550    -0.58160
Mn2372     Mn  0.63189387  0.56634032  0.34854405     1.20190
Mn2373     Mn  0.67648619  0.54417219  0.38171610     1.10090
Cl2374     Cl  0.67259949  0.58793254  0.38519642    -0.86130
C2375       C  0.65852752  0.52437478  0.29003596     0.96200
C2376       C  0.58667196  0.98623726  0.37721976     0.96000
N2377       N  0.53347751  0.61195265  0.11196171    -0.06290
N2378       N  0.51530525  0.58489562  0.11343616    -0.58410
N2379       N  0.54791512  0.67109041  0.07892470    -0.05970
N2380       N  0.53287752  0.67616493  0.05999033    -0.60530
N2381       N  0.55865316  0.65770113  0.06546751    -0.05560
N2382       N  0.55196805  0.65435862  0.03718918    -0.58380
N2383       N  0.52353440  0.62619986  0.12493090    -0.05240
N2384       N  0.99480367  0.61373036  0.13526250    -0.60890
C2385       C  0.98858873  0.58745165  0.12849415     0.95890
C2386       C  0.53611781  0.66605234  0.03402836     0.95670
N2387       N  0.59229285  0.72858948  0.15100674    -0.06470
N2388       N  0.60242700  0.75562006  0.15419941    -0.58980
N2389       N  0.54320983  0.66868749  0.17551641    -0.04590
N2390       N  0.52005480  0.65586746  0.19041025    -0.60240
N2391       N  0.56496879  0.67974457  0.19343545    -0.06500
N2392       N  0.55693427  0.67529406  0.22120954    -0.59250
N2393       N  0.57062182  0.71743458  0.13288497    -0.04230
N2394       N  0.56519015  0.73680545  0.12392264    -0.60320
Mn2395     Mn  0.54608064  0.67142165  0.12756322     1.18440
C2396       C  0.58552663  0.76054354  0.13723140     0.97970
C2397       C  0.52880118  0.66033566  0.21873175     0.98640
N2398       N  0.61506710  0.65642831  0.06779868    -0.06520
N2399       N  0.62017025  0.65034064  0.04121068    -0.62830
N2400       N  0.61436144  0.62570493  0.12917450    -0.05320
N2401       N  0.62235778  0.60869332  0.13927107    -0.63500
N2402       N  0.59069621  0.61177212  0.11443371    -0.06030
N2403       N  0.58223928  0.58490418  0.11382618    -0.63090
N2404       N  0.63845372  0.67068395  0.08319932    -0.04920
N2405       N  0.65966737  0.67404948  0.06726970    -0.63780
Mn2406     Mn  0.57415014  0.63404634  0.08956425     1.10660
C2407       C  0.64805774  0.66161017  0.04097417     0.99190
C2408       C  0.60207460  0.58334744  0.12968922     0.99270
N2409       N  0.62247692  0.67894524  0.19621225    -0.06040
N2410       N  0.62245479  0.67226511  0.22421615    -0.61410
N2411       N  0.65809923  0.71730477  0.13695123    -0.05350
N2412       N  0.68225779  0.73731364  0.12715409    -0.58140
N2413       N  0.64670482  0.72823408  0.15349494    -0.06720
N2414       N  0.66228391  0.75557633  0.15484223    -0.60980
N2415       N  0.63395331  0.66797060  0.17992456    -0.05650
N2416       N  0.64120774  0.65308465  0.19606212    -0.58160
Mn2417     Mn  0.60677697  0.70402620  0.17464444     1.20190
Mn2418     Mn  0.63716842  0.67119910  0.13205891     1.10090
Cl2419     Cl  0.59122377  0.67050625  0.13053521    -0.86130
C2420       C  0.63427692  0.65611334  0.22353164     0.96200
C2421       C  0.68426440  0.76101577  0.13843150     0.96000
N2422       N  0.89857693  0.92509740  0.10111015    -0.06290
N2423       N  0.92579683  0.93782320  0.09992148    -0.58410
N2424       N  0.83993869  0.87149240  0.07716767    -0.05970
N2425       N  0.83487484  0.84835259  0.06340881    -0.60530
N2426       N  0.84921822  0.89232526  0.05867856    -0.05560
N2427       N  0.85040202  0.88354643  0.03189366    -0.58380
N2428       N  0.88890875  0.90437680  0.11964253    -0.05240
N2429       N  0.90949678  0.90220985  0.13125197    -0.60890
C2430       C  0.93234095  0.92350757  0.11883344     0.95890
C2431       C  0.84079973  0.85595069  0.03510463     0.95670
N2432       N  0.78491498  0.86406740  0.14257633    -0.06470
N2433       N  0.75823405  0.84487700  0.14269577    -0.58980
N2434       N  0.84762712  0.88478841  0.17268534    -0.04590
N2435       N  0.86024403  0.87641336  0.19111275    -0.60240
N2436       N  0.83406533  0.89470431  0.18706608    -0.06500
N2437       N  0.83737374  0.89322843  0.21586792    -0.59250
N2438       N  0.79894694  0.85410017  0.12922852    -0.04230
N2439       N  0.78231834  0.82823218  0.11991625    -0.60320
Mn2440     Mn  0.84388574  0.87822286  0.12493391     1.18440
C2441       C  0.75705206  0.82276433  0.12831379     0.97970
C2442       C  0.85390019  0.88190157  0.21798894     0.98640
N2443       N  0.84648468  0.94828336  0.05131523    -0.06520
N2444       N  0.84980735  0.95467718  0.02316626    -0.62830
N2445       N  0.88293337  0.98862616  0.10961313    -0.05320
N2446       N  0.90627500  0.51072413  0.13485522    -0.63500
N2447       N  0.89506904  0.97727479  0.09523646    -0.06030
N2448       N  0.92221721  0.99299547  0.09758058    -0.63090
N2449       N  0.83539180  0.96124631  0.06487763    -0.04920
N2450       N  0.83170407  0.97724965  0.04612472    -0.63780
Mn2451     Mn  0.87209637  0.93556375  0.07583168     1.10660
C2452       C  0.84032656  0.97247949  0.02012128     0.99190
C2453       C  0.92985020  0.51240810  0.12496212     0.99270
N2454       N  0.83076026  0.95037655  0.17969974    -0.06040
N2455       N  0.83667795  0.95997837  0.20722550    -0.61410
N2456       N  0.79273452  0.94108733  0.11845377    -0.05350
N2457       N  0.77433082  0.94727843  0.10834468    -0.58140
N2458       N  0.78104151  0.91977764  0.13647428    -0.06660
N2459       N  0.75428657  0.91117994  0.13890210    -0.60980
N2460       N  0.84213555  0.97126720  0.16125066    -0.05650
N2461       N  0.85633042  0.99527960  0.17556398    -0.58160
Mn2462     Mn  0.80684711  0.90683781  0.16241856     1.20190
Mn2463     Mn  0.83793192  0.96591410  0.11343281     1.10090
Cl2464     Cl  0.83984426  0.92145590  0.11902843    -0.86130
C2465       C  0.85258130  0.98803391  0.20405143     0.96200
C2466       C  0.75042572  0.92841389  0.12099913     0.96000
C2467       C  0.96188538  0.56236447  0.13469255    -0.16600
C2468       C  0.95760592  0.53716855  0.12703237    -0.31780
H2469       H  0.94505847  0.56477375  0.14302114     0.12420
H2470       H  0.97453959  0.53511415  0.11834571     0.13000
C2471       C  0.70808171  0.78943001  0.13631601    -0.16600
C2472       C  0.73217777  0.79493719  0.12490772    -0.31780
H2473       H  0.70628971  0.80608562  0.14677672     0.12420
H2474       H  0.73427670  0.77832758  0.11483766     0.13000
C2475       C  0.64908756  0.65396282  0.27425416    -0.16600
C2476       C  0.63751816  0.64128312  0.24849069    -0.31780
H2477       H  0.65547448  0.67578916  0.27770803     0.12420
H2478       H  0.63301493  0.62010090  0.24436104     0.13000
C2479       C  0.66301995  0.65583144  0.01744878    -0.16600
C2480       C  0.66787813  0.64900911  0.50963883    -0.31780
H2481       H  0.68468371  0.66216560  0.02106951     0.12420
H2482       H  0.67582508  0.64526087  0.52993991     0.13000
C2483       C  0.65630526  0.98658882  0.00217342    -0.16600
C2484       C  0.66899556  0.51924156  0.50381362    -0.31780
H2485       H  0.65034369  0.97504855  0.98137548     0.12420
H2486       H  0.67661796  0.53080186  0.52450074     0.13000
C2487       C  0.64321796  0.00118044  0.23922684    -0.16600
C2488       C  0.65193643  0.50388378  0.26537285    -0.31780
H2489       H  0.63861612  0.01767426  0.23537303     0.12420
H2490       H  0.65856337  0.48869731  0.26765539     0.13000
C2491       C  0.58659573  0.53505094  0.11668514    -0.16600
C2492       C  0.60426668  0.55824286  0.13176411    -0.31780
H2493       H  0.56918146  0.53392720  0.10458344     0.12420
H2494       H  0.62195111  0.55964984  0.14355270     0.13000
C2495       C  0.58772091  0.78803079  0.13728615    -0.16600
C2496       C  0.56813125  0.79241782  0.12586317    -0.31780
H2497       H  0.60532244  0.80482934  0.14921176     0.12420
H2498       H  0.55032014  0.77573931  0.11408686     0.13000
C2499       C  0.72477662  0.92984285  0.11850834    -0.16600
C2500       C  0.70186862  0.91323327  0.13371089    -0.31780
H2501       H  0.72540631  0.94616659  0.10499055     0.12420
H2502       H  0.70120487  0.89693069  0.14727978     0.13000
C2503       C  0.96535988  0.90903972  0.13233426    -0.16600
C2504       C  0.96044226  0.92809894  0.12087593    -0.31780
H2505       H  0.94904679  0.89108135  0.14354440     0.12420
H2506       H  0.97662924  0.94568679  0.10910643     0.13000
C2507       C  0.98539425  0.64540412  0.50473590    -0.16600
C2508       C  0.52023710  0.66244984  0.00674601    -0.31780
H2509       H  0.47406954  0.63908277  0.52554943     0.12420
H2510       H  0.53130942  0.66559225  0.98629384     0.13000
C2511       C  0.01611545  0.66210794  0.26921675    -0.16600
C2512       C  0.50934579  0.64780350  0.24297053    -0.31780
H2513       H  0.03435418  0.68213638  0.27473766     0.12420
H2514       H  0.49013113  0.62845321  0.23786820     0.13000
C2515       C  0.84621029  0.98956334  0.99363596    -0.16600
C2516       C  0.85698559  0.50129107  0.47779674    -0.31780
H2517       H  0.84451677  0.97922686  0.97266057     0.12420
H2518       H  0.85943068  0.48347940  0.47307551     0.13000
C2519       C  0.86677075  0.52199309  0.24438765    -0.16600
C2520       C  0.86623133  0.00858532  0.22800719    -0.31780
H2521       H  0.87515385  0.53226557  0.22364189     0.12420
H2522       H  0.88728396  0.02560308  0.22453745     0.13000
C2523       C  0.53363435  0.57547747  0.39132749    -0.16600
C2524       C  0.55818933  0.59427294  0.40294694    -0.31780
H2525       H  0.53116918  0.55671357  0.38076930     0.12420
H2526       H  0.56099538  0.61335258  0.41302115     0.13000
C2527       C  0.79443122  0.59608127  0.37432562    -0.16600
C2528       C  0.79989709  0.57787273  0.36135197    -0.31780
H2529       H  0.81110507  0.61441106  0.38549905     0.12420
H2530       H  0.78344242  0.55949593  0.35004505     0.13000
C2531       C  0.50907186  0.84296506  0.00665579    -0.16600
C2532       C  0.98808169  0.84240598  0.50169215    -0.31780
H2533       H  0.50161258  0.82088133  0.00346938     0.12420
H2534       H  0.97774705  0.83906602  0.52267969     0.13000
C2535       C  0.01268318  0.86376190  0.26821658    -0.16600
C2536       C  0.50314513  0.86417947  0.23900770    -0.31780
H2537       H  0.03446521  0.87459162  0.27481243     0.12420
H2538       H  0.48126065  0.85453521  0.23307173     0.13000
C2539       C  0.89864662  0.95649239  0.36737639    -0.16600
C2540       C  0.92046135  0.95287943  0.36706372    -0.31780
H2541       H  0.87794089  0.93891970  0.37114458     0.12420
H2542       H  0.94145839  0.97068663  0.36618377     0.13000
C2543       C  0.94578923  0.71569689  0.37977538    -0.16600
C2544       C  0.92428999  0.71990323  0.37668928    -0.31780
H2545       H  0.96685533  0.73331484  0.37849817     0.12420
H2546       H  0.90327515  0.70209950  0.37523058     0.13000
C2547       C  0.56228309  0.95841095  0.38006631    -0.16600
C2548       C  0.53658976  0.95421890  0.38033744    -0.31780
H2549       H  0.56571779  0.94110467  0.38375742     0.12420
H2550       H  0.53312466  0.97172320  0.37918957     0.13000
C2551       C  0.80550551  0.71979931  0.36849628    -0.16600
C2552       C  0.78016664  0.71593776  0.37306756    -0.31780
H2553       H  0.80884913  0.70219621  0.36880228     0.12420
H2554       H  0.77655502  0.73324088  0.37037955     0.13000
C2555       C  0.83831079  0.84409106  0.47625156    -0.16600
C2556       C  0.84702060  0.83992806  0.01401323    -0.31780
H2557       H  0.82424629  0.85030640  0.46715270     0.12420
H2558       H  0.86114032  0.83301764  0.02118090     0.13000
C2559       C  0.86187716  0.87401527  0.24603472    -0.16600
C2560       C  0.87623777  0.86041582  0.24668714    -0.31780
H2561       H  0.85503255  0.87871495  0.26646928     0.12420
H2562       H  0.88290748  0.85554341  0.22623346     0.13000
N2563       N  0.91626743  0.89319174  0.89664183    -0.06290
N2564       N  0.92459031  0.91988229  0.90050357    -0.58410
N2565       N  0.86746260  0.83106539  0.91993043    -0.05970
N2566       N  0.84510697  0.82476364  0.93517979    -0.60530
N2567       N  0.88974733  0.84286533  0.93715794    -0.05560
N2568       N  0.88278516  0.84422230  0.96454177    -0.58380
N2569       N  0.89359718  0.88084976  0.88021086    -0.05240
N2570       N  0.88574190  0.89861612  0.87260236    -0.60890
C2571       C  0.90534373  0.92281744  0.88519201     0.95890
C2572       C  0.85485637  0.83249466  0.96305224     0.95670
N2573       N  0.85889674  0.77900700  0.84724849    -0.06470
N2574       N  0.83966222  0.75239100  0.84271991    -0.58980
N2575       N  0.87599829  0.84260910  0.82536807    -0.04590
N2576       N  0.86731764  0.85694971  0.81047186    -0.60240
N2577       N  0.88682448  0.83170946  0.80793262    -0.06500
N2578       N  0.88531290  0.83849696  0.78019943    -0.59250
N2579       N  0.84869538  0.79137523  0.86340200    -0.04230
N2580       N  0.82252995  0.77393154  0.86963665    -0.60320
Mn2581     Mn  0.87113808  0.83611546  0.87227080     1.18440
C2582       C  0.81715661  0.74970585  0.85693653     0.97970
C2583       C  0.87317438  0.85443358  0.78246360     0.98640
N2584       N  0.94696932  0.84421576  0.94062674    -0.06520
N2585       N  0.95617984  0.84992871  0.96805071    -0.62830
N2586       N  0.98426321  0.88138346  0.88488060    -0.05320
N2587       N  0.50876931  0.90087009  0.87793753    -0.63500
N2588       N  0.97262340  0.89342239  0.89904923    -0.06030
N2589       N  0.98995924  0.92058246  0.90153967    -0.63090
N2590       N  0.95914372  0.83273269  0.92629533    -0.04920
N2591       N  0.97728663  0.83112477  0.94404948    -0.63780
Mn2592     Mn  0.93142878  0.86848468  0.91856315     1.10660
C2593       C  0.97478052  0.84149561  0.97022357     0.99190
C2594       C  0.51172773  0.92510261  0.88832897     0.99270
N2595       N  0.94478149  0.83023277  0.81135053    -0.06040
N2596       N  0.95412222  0.83492374  0.78395916    -0.61410
N2597       N  0.93797118  0.79041109  0.86961893    -0.05350
N2598       N  0.94361411  0.77153158  0.87949856    -0.58140
N2599       N  0.91599525  0.77869072  0.85176045    -0.06660
N2600       N  0.90598361  0.75143324  0.84979406    -0.60980
N2601       N  0.96597930  0.84119956  0.83014469    -0.05650
N2602       N  0.98975142  0.85361086  0.81624466    -0.58160
Mn2603     Mn  0.90137101  0.80425060  0.82826319     1.20190
Mn2604     Mn  0.96204147  0.83598861  0.87779263     1.10090
Cl2605     Cl  0.91642196  0.83578571  0.87419263    -0.86130
C2606       C  0.98228817  0.84972432  0.78756269     0.96200
C2607       C  0.92349619  0.74733875  0.86707660     0.96000
N2608       N  0.96364775  0.61340492  0.81706109    -0.06290
N2609       N  0.97451415  0.61868635  0.79053696    -0.58410
N2610       N  0.99000670  0.60559078  0.87983003    -0.05970
N2611       N  0.51703059  0.61839702  0.89819348    -0.60530
N2612       N  0.97735434  0.58276523  0.86329812    -0.05560
N2613       N  0.99162520  0.56985473  0.86306024    -0.58380
N2614       N  0.97593352  0.63618612  0.83374224    -0.05240
N2615       N  0.99535115  0.65725977  0.81876982    -0.60890
C2616       C  0.99407063  0.64613674  0.79179557     0.95890
C2617       C  0.52136496  0.59764532  0.88975088     0.95670
N2618       N  0.94713669  0.62247783  0.94435359    -0.06470
N2619       N  0.95195644  0.62801370  0.97291743    -0.58980
N2620       N  0.95328731  0.65986512  0.88447839    -0.04590
N2621       N  0.96217219  0.68506914  0.87396691    -0.60240
N2622       N  0.92960371  0.65089435  0.89816460    -0.06500
N2623       N  0.92166525  0.66957135  0.89666974    -0.59250
N2624       N  0.97064493  0.63161632  0.93039502    -0.04230
N2625       N  0.99187268  0.64353417  0.94911445    -0.60320
Mn2626     Mn  0.97300743  0.63390636  0.88218424     1.18440
C2627       C  0.97993032  0.64108347  0.97549245     0.97970
C2628       C  0.94213721  0.69073033  0.88148583     0.98640
N2629       N  0.91748496  0.53051508  0.85656822    -0.06520
N2630       N  0.92301869  0.51018968  0.85466734    -0.62830
N2631       N  0.87774840  0.55085619  0.82424626    -0.05320
N2632       N  0.85682886  0.53477582  0.80608053    -0.63500
N2633       N  0.90163920  0.55953086  0.81099207    -0.06030
N2634       N  0.89713138  0.54959199  0.78368068    -0.63090
N2635       N  0.89346748  0.52173807  0.86919424    -0.04920
N2636       N  0.90203154  0.00029711  0.88937264    -0.63780
Mn2637     Mn  0.94012766  0.57168697  0.83661217     1.10660
C2638       C  0.92450704  0.99828868  0.88276469     0.99190
C2639       C  0.86916537  0.53442977  0.78078516     0.99270
N2640       N  0.87065872  0.59833628  0.89453636    -0.06040
N2641       N  0.85564537  0.61036328  0.89665327    -0.61410
N2642       N  0.87512275  0.54509460  0.92074096    -0.05350
N2643       N  0.86510954  0.52163850  0.93531353    -0.58140
N2644       N  0.88689963  0.56684010  0.93886998    -0.06660
N2645       N  0.88455371  0.55829087  0.96651695    -0.60980
N2646       N  0.85842299  0.57622991  0.87701659    -0.05650
N2647       N  0.83441268  0.57249400  0.86718414    -0.58160
Mn2648     Mn  0.90831165  0.60974603  0.91986064     1.20190
Mn2649     Mn  0.87552802  0.54840108  0.87270170     1.10090
Cl2650     Cl  0.92424056  0.59105093  0.87767752    -0.86130
C2651       C  0.83325536  0.59421736  0.87940709     0.96200
C2652       C  0.87070184  0.52994282  0.96374569     0.96000
N2653       N  0.55486996  0.87752359  0.68860240    -0.06290
N2654       N  0.54574031  0.87430685  0.71604626    -0.58410
N2655       N  0.56049979  0.84825588  0.62453584    -0.05970
N2656       N  0.55489197  0.82494810  0.61068624    -0.60530
N2657       N  0.58173404  0.85655366  0.64284893    -0.05560
N2658       N  0.59135914  0.83933562  0.64153816    -0.58380
N2659       N  0.53375290  0.86821345  0.66989877    -0.05240
N2660       N  0.51017082  0.85874757  0.68384667    -0.60890
C2661       C  0.51770747  0.86256998  0.71252166     0.95890
C2662       C  0.57452259  0.81986364  0.62133459     0.95670
N2663       N  0.55385575  0.89987172  0.56177746    -0.06470
N2664       N  0.54829918  0.89729450  0.53314208    -0.58980
N2665       N  0.51714066  0.89435411  0.62111738    -0.04590
N2666       N  0.99156650  0.88446280  0.62852479    -0.60240
N2667       N  0.52820454  0.91917804  0.60937610    -0.06500
N2668       N  0.50984370  0.92751477  0.60895875    -0.59250
N2669       N  0.54194764  0.87507711  0.57393364    -0.04230
N2670       N  0.52759773  0.85532282  0.55389297    -0.60320
Mn2671     Mn  0.53817722  0.87086194  0.62216188     1.18440
C2672       C  0.53219138  0.86942356  0.52847199     0.97970
C2673       C  0.98716310  0.90522672  0.62090868     0.98640
N2674       N  0.63896029  0.91089572  0.65091048    -0.06520
N2675       N  0.65525825  0.90026772  0.65357090    -0.62830
N2676       N  0.62866683  0.95773505  0.68303750    -0.05320
N2677       N  0.64154275  0.97847576  0.70235213    -0.63500
N2678       N  0.61543922  0.93367795  0.69657294    -0.06030
N2679       N  0.61928932  0.93765676  0.72546843    -0.63090
N2680       N  0.65169501  0.93480180  0.63689295    -0.04920
N2681       N  0.67721946  0.94097805  0.63018318    -0.63780
Mn2682     Mn  0.59765500  0.89430343  0.67068818     1.10660
C2683       C  0.67895920  0.91901589  0.64050985     0.99190
C2684       C  0.63557093  0.96573558  0.72870235     0.99270
N2685       N  0.58695407  0.97575260  0.61835018    -0.06040
N2686       N  0.57855674  0.99396891  0.62060578    -0.61410
N2687       N  0.63444515  0.96585518  0.58577113    -0.05350
N2688       N  0.65639640  0.98418017  0.57083022    -0.58140
N2689       N  0.61162554  0.95750699  0.56973040    -0.06660
N2690       N  0.61778296  0.96970199  0.54382301    -0.60980
N2691       N  0.60984466  0.98423961  0.63418674    -0.05650
N2692       N  0.61617937  0.50870274  0.63825594    -0.58160
Mn2693     Mn  0.57002360  0.93831533  0.58939108     1.20190
Mn2694     Mn  0.63189155  0.96096832  0.63466403     1.10090
Cl2695     Cl  0.58463576  0.91616649  0.62904055    -0.86130
C2696       C  0.59559423  0.51377313  0.63182335     0.96200
C2697       C  0.64572793  0.98615748  0.54456300     0.96000
N2698       N  0.72841670  0.64011920  0.89212897    -0.06290
N2699       N  0.75547324  0.65594263  0.88885325    -0.58410
N2700       N  0.66968082  0.62911068  0.92320741    -0.05970
N2701       N  0.65647214  0.63862207  0.93893425    -0.60530
N2702       N  0.68338933  0.62108496  0.94042227    -0.05560
N2703       N  0.67998486  0.62559965  0.96851951    -0.58380
N2704       N  0.71498693  0.64903608  0.87571198    -0.05240
N2705       N  0.73291288  0.67164905  0.86137995    -0.60890
C2706       C  0.75806204  0.67549785  0.86973963     0.95890
C2707       C  0.66318948  0.63672540  0.96706297     0.95670
N2708       N  0.61026589  0.57555775  0.86216254    -0.06470
N2709       N  0.58314349  0.56375775  0.86383671    -0.58980
N2710       N  0.66598161  0.62120856  0.82619195    -0.04590
N2711       N  0.66981465  0.64018051  0.80642173    -0.60240
N2712       N  0.65345312  0.59616087  0.81375443    -0.06500
N2713       N  0.64919265  0.59768440  0.78536072    -0.59250
N2714       N  0.62285198  0.60042963  0.87483121    -0.04230
N2715       N  0.60430573  0.60613967  0.88545260    -0.60320
Mn2716     Mn  0.66869786  0.62592454  0.87488701     1.18440
C2717       C  0.57968643  0.58285204  0.87850732     0.97970
C2718       C  0.65961530  0.62515988  0.78100018     0.98640
N2719       N  0.68557001  0.56379741  0.94512781    -0.06520
N2720       N  0.68611240  0.55997200  0.97389090    -0.62830
N2721       N  0.71589036  0.56055852  0.88249922    -0.05320
N2722       N  0.73306127  0.55407892  0.87000666    -0.63500
N2723       N  0.72953323  0.58486316  0.89638842    -0.06030
N2724       N  0.75654243  0.59552997  0.89342692    -0.63090
N2725       N  0.67298050  0.53953812  0.93103412    -0.04920
N2726       N  0.66470613  0.51890154  0.94974614    -0.63780
Mn2727     Mn  0.70728149  0.60292761  0.91964394     1.10660
C2728       C  0.67296973  0.53179363  0.97637846     0.99190
C2729       C  0.75826840  0.57608033  0.87681667     0.99270
N2730       N  0.65439209  0.53988483  0.81864694    -0.06040
N2731       N  0.64845709  0.52862019  0.79198466    -0.61410
N2732       N  0.62609772  0.51228920  0.88245500    -0.05350
N2733       N  0.61304090  0.98763884  0.88939211    -0.58140
N2734       N  0.61179033  0.52074122  0.86703305    -0.06660
N2735       N  0.58510641  0.50199590  0.86750977    -0.60980
N2736       N  0.66803708  0.53058902  0.83403794    -0.05650
N2737       N  0.67139281  0.51254374  0.81794951    -0.58160
Mn2738     Mn  0.63242766  0.55815286  0.84003863     1.20190
Mn2739     Mn  0.67101451  0.53545990  0.88263070     1.10090
Cl2740     Cl  0.66994345  0.58069842  0.87928415    -0.86130
C2741       C  0.65931183  0.51179905  0.79165084     0.96200
C2742       C  0.58723117  0.98186913  0.88156653     0.96000
N2743       N  0.52677045  0.61342490  0.61259465    -0.06290
N2744       N  0.50837991  0.58674478  0.61484462    -0.58410
N2745       N  0.54348238  0.67175592  0.57833222    -0.05970
N2746       N  0.52822665  0.67687772  0.55965794    -0.60530
N2747       N  0.55293564  0.65727083  0.56488397    -0.05560
N2748       N  0.54512393  0.65299402  0.53692401    -0.58380
N2749       N  0.51844348  0.62860992  0.62642000    -0.05240
N2750       N  0.99422625  0.61221303  0.63562091    -0.60890
C2751       C  0.98782491  0.58630991  0.62705276     0.95890
C2752       C  0.52998681  0.66543840  0.53382291     0.95670
N2753       N  0.59595626  0.73016044  0.64549961    -0.06470
N2754       N  0.60839471  0.75760903  0.64569576    -0.58980
N2755       N  0.54444671  0.67363884  0.67545761    -0.04590
N2756       N  0.52209243  0.66118025  0.69167255    -0.60240
N2757       N  0.56711862  0.68441955  0.69209837    -0.06500
N2758       N  0.56038070  0.67979453  0.72030138    -0.59250
N2759       N  0.57297761  0.71913199  0.62930695    -0.04230
N2760       N  0.56921701  0.73889935  0.61840680    -0.60320
Mn2761     Mn  0.54445974  0.67383334  0.62724577     1.18440
C2762       C  0.59164330  0.76272725  0.62860006     0.97970
C2763       C  0.53213813  0.66543185  0.71949157     0.98640
N2764       N  0.60583042  0.65146561  0.56752909    -0.06520
N2765       N  0.60980983  0.65017986  0.53916826    -0.62830
N2766       N  0.60136844  0.61703506  0.62919896    -0.05320
N2767       N  0.60480948  0.59678312  0.63935969    -0.63500
N2768       N  0.57794923  0.60651485  0.61401760    -0.06030
N2769       N  0.56479581  0.57907442  0.61369116    -0.63090
N2770       N  0.62938991  0.66169789  0.58247884    -0.04920
N2771       N  0.64992520  0.66707981  0.56450218    -0.63780
Mn2772     Mn  0.56588728  0.63209027  0.58935882     1.10660
C2773       C  0.63730520  0.66009745  0.53759497     0.99190
C2774       C  0.58158889  0.57327895  0.62968394     0.99270
N2775       N  0.62148075  0.67841327  0.69441105    -0.06040
N2776       N  0.62618498  0.67784997  0.72297804    -0.61410
N2777       N  0.65633344  0.70830119  0.63288813    -0.05350
N2778       N  0.68118033  0.72413458  0.62158483    -0.58140
N2779       N  0.64860093  0.72369673  0.64755924    -0.06720
N2780       N  0.66800962  0.75032107  0.64641806    -0.60980
N2781       N  0.62927653  0.66313830  0.67961786    -0.05650
N2782       N  0.63923615  0.65178497  0.69775741    -0.58160
Mn2783     Mn  0.60856727  0.70480330  0.67088196     1.20190
Mn2784     Mn  0.62981974  0.66248838  0.63108058     1.10090
Cl2785     Cl  0.58741763  0.66863347  0.62962736    -0.86130
C2786       C  0.63714051  0.66105720  0.72471019     0.96200
C2787       C  0.68814865  0.75029997  0.63008783     0.96000
N2788       N  0.89258493  0.92018840  0.59207363    -0.06290
N2789       N  0.91967672  0.93170764  0.59009422    -0.58410
N2790       N  0.82995674  0.87175640  0.56900232    -0.05970
N2791       N  0.82539518  0.84968114  0.55331922    -0.60530
N2792       N  0.84095474  0.89413257  0.55241437    -0.05560
N2793       N  0.84369660  0.88720672  0.52520052    -0.58380
N2794       N  0.88208842  0.89788714  0.60849785    -0.05240
N2795       N  0.90212361  0.89366841  0.61806116    -0.60890
C2796       C  0.92541619  0.91510430  0.60632692     0.95890
C2797       C  0.83342667  0.85931491  0.52591021     0.95670
N2798       N  0.78217094  0.86584907  0.64411051    -0.06470
N2799       N  0.75548305  0.84916896  0.64874296    -0.58980
N2800       N  0.84498877  0.87833812  0.66406152    -0.04590
N2801       N  0.85839214  0.86788675  0.67788774    -0.60240
N2802       N  0.83546459  0.88962840  0.68271376    -0.06500
N2803       N  0.84228953  0.88675049  0.71005609    -0.59250
N2804       N  0.79165743  0.85369084  0.62652254    -0.04230
N2805       N  0.77141624  0.82818166  0.61916409    -0.60320
Mn2806     Mn  0.83680658  0.87475607  0.61695706     1.18440
C2807       C  0.74897203  0.82586612  0.63307914     0.97970
C2808       C  0.85675973  0.87325197  0.70645118     0.98640
N2809       N  0.84374365  0.95413762  0.55497108    -0.06520
N2810       N  0.84720682  0.96443798  0.52826106    -0.62830
N2811       N  0.88504418  0.98798622  0.61241790    -0.05320
N2812       N  0.90382081  0.51391158  0.62375686    -0.63500
N2813       N  0.89479148  0.97617340  0.59492045    -0.06030
N2814       N  0.92202472  0.99157265  0.59352807    -0.63090
N2815       N  0.83427028  0.96638945  0.57246060    -0.04920
N2816       N  0.83116712  0.98509397  0.55777904    -0.63780
Mn2817     Mn  0.86767307  0.93599228  0.57296006     1.10660
C2818       C  0.83909791  0.98351608  0.53021339     0.99190
C2819       C  0.92690772  0.51436114  0.61429521     0.99270
N2820       N  0.83719768  0.94869673  0.68496660    -0.06040
N2821       N  0.84399621  0.95675016  0.71288181    -0.61410
N2822       N  0.79614016  0.94618884  0.62893886    -0.05350
N2823       N  0.77822256  0.95362109  0.62038300    -0.58140
N2824       N  0.78410563  0.92393914  0.64560222    -0.06660
N2825       N  0.75745615  0.91574228  0.64851727    -0.60980
N2826       N  0.84871741  0.97050306  0.66776502    -0.05650
N2827       N  0.86400916  0.99362630  0.68322977    -0.58160
Mn2828     Mn  0.80921220  0.90673406  0.66542340     1.20190
Mn2829     Mn  0.84075238  0.96800960  0.62042302     1.10090
Cl2830     Cl  0.83822905  0.92115981  0.61874636    -0.86130
C2831       C  0.86083041  0.98485469  0.71119015     0.96200
C2832       C  0.75415682  0.93448100  0.63253685     0.96000
C2833       C  0.96060729  0.56156168  0.63101495    -0.16600
C2834       C  0.95516600  0.53733164  0.61887787    -0.31780
H2835       H  0.94426101  0.56394860  0.64080904     0.12420
H2836       H  0.97160199  0.53518378  0.60892180     0.13000
C2837       C  0.71529412  0.77542084  0.62419144    -0.16600
C2838       C  0.72123394  0.80059957  0.63440580    -0.31780
H2839       H  0.73090759  0.77298429  0.61271345     0.12420
H2840       H  0.70551205  0.80263671  0.64618378     0.13000
C2841       C  0.65485363  0.63566729  0.75315342    -0.16600
C2842       C  0.64651579  0.65447319  0.75251965    -0.31780
H2843       H  0.65449075  0.62484466  0.73296352     0.12420
H2844       H  0.64504480  0.66398024  0.77290852     0.13000
C2845       C  0.64996352  0.65832665  0.51028442    -0.16600
C2846       C  0.65002475  0.64280614  0.99204657    -0.31780
H2847       H  0.64081957  0.66036816  0.48991530     0.12420
H2848       H  0.62888153  0.63817372  0.98811466     0.13000
C2849       C  0.66171629  0.00740084  0.52178937    -0.16600
C2850       C  0.66803832  0.51665200  0.00451525    -0.31780
H2851       H  0.68392136  0.02128815  0.52503809     0.12420
H2852       H  0.67192094  0.52816871  0.02516688     0.13000
C2853       C  0.64566982  0.98067527  0.75740934    -0.16600
C2854       C  0.65339153  0.49119025  0.76768329    -0.31780
H2855       H  0.63705269  0.96907365  0.77746120     0.12420
H2856       H  0.66019700  0.47614699  0.76992498     0.13000
C2857       C  0.59731250  0.54030594  0.63911462    -0.16600
C2858       C  0.57718372  0.54505343  0.63061669    -0.31780
H2859       H  0.61651767  0.55696623  0.64889824     0.12420
H2860       H  0.55816356  0.52836316  0.62054195     0.13000
C2861       C  0.59476741  0.79041523  0.62692710    -0.16600
C2862       C  0.57492478  0.79420043  0.61504865    -0.31780
H2863       H  0.61226091  0.80738698  0.63881001     0.12420
H2864       H  0.55739948  0.77736678  0.60308697     0.13000
C2865       C  0.72840211  0.93582811  0.62981371    -0.16600
C2866       C  0.70416477  0.91655937  0.64111303    -0.31780
H2867       H  0.72968873  0.95361354  0.61861299     0.12420
H2868       H  0.70284349  0.89866599  0.65210211     0.13000
C2869       C  0.95956899  0.90235528  0.62268994    -0.16600
C2870       C  0.95377984  0.91999925  0.60907412    -0.31780
H2871       H  0.94315375  0.88405738  0.63334798     0.12420
H2872       H  0.97013135  0.93793519  0.59788302     0.13000
C2873       C  0.99553975  0.65238275  0.00341961    -0.16600
C2874       C  0.51380439  0.66174273  0.50662515    -0.31780
H2875       H  0.48091619  0.64520251  0.02656186     0.12420
H2876       H  0.52536894  0.66718169  0.48628912     0.13000
C2877       C  0.01498790  0.66065818  0.76874933    -0.16600
C2878       C  0.51377728  0.65161774  0.74447364    -0.31780
H2879       H  0.03172805  0.68194948  0.77285574     0.12420
H2880       H  0.49603048  0.63091945  0.74005682     0.13000
C2881       C  0.84565229  0.00507407  0.50786175    -0.16600
C2882       C  0.86522696  0.50979416  0.98743921    -0.31780
H2883       H  0.84003669  0.02088162  0.51161469     0.12420
H2884       H  0.86757347  0.49206614  0.98189449     0.13000
C2885       C  0.85446380  0.51395200  0.75655429    -0.16600
C2886       C  0.87438548  0.00432839  0.73607025    -0.31780
H2887       H  0.83244851  0.49891662  0.75863251     0.12420
H2888       H  0.89534417  0.02163124  0.73289260     0.13000
C2889       C  0.54822050  0.59921596  0.89368621    -0.16600
C2890       C  0.55211953  0.57932628  0.88218840    -0.31780
H2891       H  0.56550447  0.61804000  0.90340795     0.12420
H2892       H  0.53465699  0.56054867  0.87259229     0.13000
C2893       C  0.78402527  0.57660677  0.86970861    -0.16600
C2894       C  0.80866225  0.59714996  0.87952892    -0.31780
H2895       H  0.78233327  0.55840374  0.85860787     0.12420
H2896       H  0.81021611  0.61505328  0.89117532     0.13000
C2897       C  0.51593448  0.85724259  0.50094631    -0.16600
C2898       C  0.99738006  0.85534460  0.99217644    -0.31780
H2899       H  0.52641194  0.86477665  0.48012255     0.12420
H2900       H  0.00232792  0.87625513  0.99873931     0.13000
C2901       C  0.00330386  0.85904992  0.76413049    -0.16600
C2902       C  0.49683591  0.85436071  0.73603624    -0.31780
H2903       H  0.02504554  0.87031053  0.77092367     0.12420
H2904       H  0.47508238  0.84346969  0.72928730     0.13000
C2905       C  0.92657000  0.97352632  0.88791725    -0.16600
C2906       C  0.90402063  0.94831632  0.88410156    -0.31780
H2907       H  0.94690801  0.97583515  0.89129982     0.12420
H2908       H  0.88426330  0.94635382  0.87787639     0.13000
C2909       C  0.94379067  0.71767090  0.87580638    -0.16600
C2910       C  0.92111632  0.71989825  0.87169432    -0.31780
H2911       H  0.96430495  0.73609327  0.87412569     0.12420
H2912       H  0.90062798  0.70126131  0.87074182     0.13000
C2913       C  0.56204738  0.95481298  0.88589669    -0.16600
C2914       C  0.53694839  0.95236097  0.88542396    -0.31780
H2915       H  0.56413835  0.93670801  0.88973592     0.12420
H2916       H  0.53494066  0.97074483  0.88395270     0.13000
C2917       C  0.78926504  0.72454627  0.85759676    -0.16600
C2918       C  0.78539309  0.69900400  0.86129829    -0.31780
H2919       H  0.77167215  0.72767338  0.85961640     0.12420
H2920       H  0.80327303  0.69624425  0.86255397     0.13000
C2921       C  0.83947942  0.83772697  0.98570371    -0.16600
C2922       C  0.84273264  0.84522704  0.50535598    -0.31780
H2923       H  0.82447674  0.84354262  0.97870828     0.12420
H2924       H  0.85567997  0.83758029  0.51437648     0.13000
C2925       C  0.86777806  0.86301800  0.72993031    -0.16600
C2926       C  0.86483245  0.86658058  0.75843999    -0.31780
H2927       H  0.87767459  0.85134041  0.72341975     0.12420
H2928       H  0.85475507  0.87814584  0.76474984     0.13000
loop_ 
_geom_bond_atom_site_label_1 
_geom_bond_atom_site_label_2 
_geom_bond_distance 
_geom_bond_site_symmetry_2 
_ccdc_geom_bond_type 
N1            N2   1.319       .  A
N1            N7   1.312       .  A
N1          Mn30   2.184       .  S
N2            C9   1.350       .  A
N3            N5   1.317       .  A
N3            N4   1.326       .  A
N3          Mn19   2.210       .  S
N4           C10   1.353       .  A
N5            N6   1.317       .  A
N5          Mn30   2.188       .  S
N6           C10   1.346       .  A
N7            N8   1.314       .  A
N7          Mn19   2.170       .  S
N8            C9   1.350       .  A
C9          C344   1.457       .  S
C10         C359   1.470       .  S
N11          N17   1.319       .  A
N11          N12   1.325       .  A
N11         Mn41   2.237       .  S
N12          C20   1.357       .  A
N13          N14   1.317       .  A
N13          N15   1.317       .  A
N13         Mn19   2.181       .  S
N14          C21   1.344       .  A
N15          N16   1.331       .  A
N15         Mn41   2.255       .  S
N16          C21   1.365       .  A
N17          N18   1.316       .  A
N17         Mn19   2.185       .  S
N18          C20   1.346       .  A
Mn19        Cl43   2.544       .  S
C20         C355   1.468       .  S
C21         C364   1.488       .  S
N22          N23   1.318       .  A
N22          N28   1.316       .  A
N22         Mn30   2.200       .  S
N23          C31   1.351       .  A
N24          N26   1.312       .  A
N24        N1489   1.324       .  A
N24         Mn42   2.209       .  S
N25        N1488   1.321   1_455  A
N25          C32   1.354       .  A
N26          N27   1.316       .  A
N26         Mn30   2.171       .  S
N27        C1496   1.345       .  A
N28          N29   1.323       .  A
N28         Mn42   2.206       .  S
N29          C31   1.354       .  A
Mn30        Cl43   2.531       .  S
C31         C336   1.471       .  S
C32        N1491   1.345   1_455  A
C32         C352   1.457       .  S
N33          N34   1.328       .  A
N33          N39   1.319       .  A
N33         Mn41   2.256       .  S
N34          C44   1.364       .  A
N35          N36   1.321       .  A
N35          N37   1.319       .  A
N35         Mn42   2.205       .  S
N36          C45   1.352       .  A
N37          N38   1.325       .  A
N37         Mn41   2.238       .  S
N38          C45   1.356       .  A
N39          N40   1.315       .  A
N39         Mn42   2.173       .  S
N40          C44   1.341       .  A
Mn41        Cl43   2.549       .  S
Mn42        Cl43   2.554       .  S
C44         C339   1.477       .  S
C45         C348   1.483       .  S
N46          N47   1.316       .  A
N46          N52   1.317       .  A
N46         Mn75   2.184       .  S
N47          C54   1.346       .  A
N48          N50   1.316       .  A
N48        N1513   1.325       .  A
N48         Mn64   2.227       .  S
N49        N1512   1.326   1_455  A
N49          C55   1.362       .  A
N50          N51   1.314       .  A
N50         Mn75   2.169       .  S
N51        C1519   1.342       .  A
N52          N53   1.325       .  A
N52         Mn64   2.218       .  S
N53          C54   1.356       .  A
C54         C315   1.468       .  S
C55        N1515   1.341   1_455  A
C55         C327   1.469       .  S
N56          N62   1.319       .  A
N56          N57   1.326       .  A
N56         Mn86   2.238       .  S
N57          C65   1.358       .  A
N58          N59   1.322       .  A
N58          N60   1.321       .  A
N58         Mn64   2.229       .  S
N59          C66   1.354       .  A
N60          N61   1.324       .  A
N60         Mn86   2.225       .  S
N61          C66   1.355       .  A
N62          N63   1.321       .  A
N62         Mn64   2.207       .  S
N63          C65   1.352       .  A
Mn64        Cl88   2.554       .  S
C65         C311   1.489       .  S
C66         C347   1.481       .  S
N67          N68   1.317       .  A
N67          N73   1.310       .  A
N67         Mn75   2.182       .  S
N68         C808   1.352   1_545  A
N69          N71   1.314       .  A
N69          N70   1.320       .  A
N69         Mn87   2.177       .  S
N70          C77   1.348       .  A
N71          N72   1.316       .  A
N71         Mn75   2.185       .  S
N72          C77   1.351       .  A
N73         N806   1.317   1_545  A
N73         Mn87   2.161       .  S
N74         N805   1.315       .  A
N74          C76   1.347       .  A
Mn75        Cl88   2.527       .  S
C76         N800   1.351       .  A
C76         C343   1.452       .  S
C77         C323   1.466       .  S
N78          N79   1.322       .  A
N78          N84   1.315       .  A
N78         Mn86   2.230       .  S
N79          C89   1.360       .  A
N80          N81   1.313       .  A
N80          N82   1.317       .  A
N80         Mn87   2.169       .  S
N81          C90   1.341       .  A
N82          N83   1.327       .  A
N82         Mn86   2.236       .  S
N83          C90   1.360       .  A
N84          N85   1.315       .  A
N84         Mn87   2.150       .  S
N85          C89   1.341       .  A
Mn86        Cl88   2.547       .  S
Mn87        Cl88   2.545       .  S
C89         C332   1.466       .  S
C90         C320   1.463       .  S
N91          N92   1.331       .  A
N91          N97   1.318       .  A
N91        Mn120   2.261       .  S
N92          C99   1.366       .  A
N93          N95   1.317       .  A
N93          N94   1.321       .  A
N93        Mn109   2.205       .  S
N94         C100   1.353       .  A
N95          N96   1.319       .  A
N95        Mn120   2.202       .  S
N96         C100   1.351       .  A
N97          N98   1.316       .  A
N97        Mn109   2.176       .  S
N98          C99   1.343       .  A
C99         C340   1.486   1_455  S
C100        C300   1.471       .  S
N101        N107   1.316       .  A
N101        N102   1.321       .  A
N101       Mn131   2.215       .  S
N102        C110   1.355       .  A
N103        N105   1.313       .  A
N103       N1568   1.322   1_455  A
N103       Mn109   2.209       .  S
N104       N1567   1.321       .  A
N104        C111   1.355       .  A
N105        N106   1.317       .  A
N105       Mn131   2.179       .  S
N106       C1575   1.348   1_455  A
N107        N108   1.324       .  A
N107       Mn109   2.206       .  S
N108        C110   1.352       .  A
Mn109      Cl133   2.550       .  S
C110        C335   1.484       .  S
C111       N1570   1.346       .  A
C111        C307   1.462       .  S
N112        N113   1.323       .  A
N112        N118   1.319       .  A
N112       Mn120   2.237       .  S
N113        C121   1.354       .  A
N114        N116   1.317       .  A
N114        N115   1.319       .  A
N114       Mn132   2.206       .  S
N115        C122   1.348       .  A
N116        N117   1.327       .  A
N116       Mn120   2.226       .  S
N117        C122   1.359       .  A
N118        N119   1.324       .  A
N118       Mn132   2.209       .  S
N119        C121   1.355       .  A
Mn120      Cl133   2.556       .  S
C121        C304   1.485       .  S
C122        C291   1.479       .  S
N123        N124   1.320       .  A
N123        N129   1.314       .  A
N123       Mn131   2.209       .  S
N124        C866   1.355       .  A
N125        N126   1.328       .  A
N125        N127   1.319       .  A
N125       Mn132   2.234       .  S
N126        C135   1.359       .  A
N127        N128   1.316       .  A
N127       Mn131   2.185       .  S
N128        C135   1.344       .  A
N129        N862   1.316       .  A
N129       Mn132   2.161       .  S
N130        N861   1.317   1_545  A
N130        C134   1.348       .  A
Mn131      Cl133   2.531       .  S
Mn132      Cl133   2.559       .  S
C134        N856   1.354   1_545  A
C134        C295   1.464       .  S
C135        C287   1.474       .  S
N136        N137   1.320       .  A
N136        N142   1.316       .  A
N136       Mn165   2.207       .  S
N137        C144   1.349       .  A
N138        N140   1.314       .  A
N138        N139   1.312       .  A
N138       Mn154   2.167       .  S
N139        C145   1.341       .  A
N140        N141   1.324       .  A
N140       Mn165   2.203       .  S
N141        C145   1.358       .  A
N142        N143   1.321       .  A
N142       Mn154   2.199       .  S
N143        C144   1.355       .  A
C144        C356   1.473       .  S
C145        C284   1.457       .  S
N146        N152   1.315       .  A
N146        N147   1.324       .  A
N146       Mn176   2.231       .  S
N147        C155   1.361       .  A
N148        N149   1.323       .  A
N148        N150   1.319       .  A
N148       Mn154   2.201       .  S
N149        C156   1.351       .  A
N150        N151   1.321       .  A
N150       Mn176   2.211       .  S
N151        C156   1.352       .  A
N152        N153   1.316       .  A
N152       Mn154   2.165       .  S
N153        C155   1.343       .  A
Mn154      Cl178   2.538       .  S
C155        C328   1.471       .  S
C156        C279   1.479       .  S
N157        N158   1.331       .  A
N157        N163   1.317       .  A
N157       Mn165   2.240       .  S
N158        C166   1.363       .  A
N159        N161   1.315       .  A
N159        N160   1.325       .  A
N159       Mn177   2.225       .  S
N160        C167   1.361       .  A
N161        N162   1.312       .  A
N161       Mn165   2.157       .  S
N162        C167   1.339       .  A
N163        N164   1.318       .  A
N163       Mn177   2.202       .  S
N164        C166   1.347       .  A
Mn165      Cl178   2.558       .  S
C166        C288   1.483       .  S
C167        C331   1.462       .  S
N168        N169   1.322       .  A
N168        N174   1.322       .  A
N168       Mn176   2.222       .  S
N169        C179   1.353       .  A
N170        N172   1.317       .  A
N170        N903   1.316   1_545  A
N170       Mn177   2.178       .  S
N171        N902   1.320       .  A
N171        C180   1.350       .  A
N172        N173   1.321       .  A
N172       Mn176   2.205       .  S
N173        C912   1.354   1_545  A
N174        N175   1.324       .  A
N174       Mn177   2.217       .  S
N175        C179   1.353       .  A
Mn176      Cl178   2.543       .  S
Mn177      Cl178   2.540       .  S
C179        C292   1.487       .  S
C180        N905   1.351       .  A
C180        C351   1.464       .  S
N181        N182   1.311       .  A
N181        N187   1.313       .  A
N181       Mn210   2.177       .  S
N182       C1653   1.350   1_455  A
N183        N185   1.318       .  A
N183        N184   1.325       .  A
N183       Mn199   2.210       .  S
N184        C190   1.354       .  A
N185        N186   1.314       .  A
N185       Mn210   2.184       .  S
N186        C190   1.348       .  A
N187       N1652   1.321   1_455  A
N187       Mn199   2.177       .  S
N188       N1651   1.323       .  A
N188        C189   1.355       .  A
C189       N1646   1.347       .  A
C189        C271   1.466       .  S
C190        C312   1.476       .  S
N191        N197   1.317       .  A
N191        N192   1.322       .  A
N191       Mn221   2.221       .  S
N192        C200   1.353       .  A
N193        N194   1.319       .  A
N193        N195   1.316       .  A
N193       Mn199   2.193       .  S
N194        C201   1.349       .  A
N195        N196   1.323       .  A
N195       Mn221   2.213       .  S
N196        C201   1.354       .  A
N197        N198   1.318       .  A
N197       Mn199   2.184       .  S
N198        C200   1.351       .  A
Mn199      Cl223   2.559       .  S
C200        C299   1.471       .  S
C201        C316   1.467       .  S
N202        N203   1.319       .  A
N202        N208   1.316       .  A
N202       Mn210   2.196       .  S
N203        C211   1.350       .  A
N204        N206   1.313       .  A
N204        N205   1.318       .  A
N204       Mn222   2.188       .  S
N205        C212   1.354       .  A
N206        N207   1.318       .  A
N206       Mn210   2.184       .  S
N207        C212   1.349       .  A
N208        N209   1.322       .  A
N208       Mn222   2.202       .  S
N209        C211   1.353       .  A
Mn210      Cl223   2.518       .  S
C211        C283   1.471       .  S
C212        C296   1.466       .  S
N213        N214   1.326       .  A
N213        N219   1.316       .  A
N213       Mn221   2.224       .  S
N214        C224   1.358       .  A
N215        N216   1.321       .  A
N215        N217   1.317       .  A
N215       Mn222   2.200       .  S
N216        C225   1.352       .  A
N217        N218   1.317       .  A
N217       Mn221   2.201       .  S
N218        C225   1.353       .  A
N219        N220   1.317       .  A
N219       Mn222   2.186       .  S
N220        C224   1.346       .  A
Mn221      Cl223   2.536       .  S
Mn222      Cl223   2.552       .  S
C224        C280   1.473       .  S
C225        C275   1.471       .  S
N226        N227   1.318       .  A
N226        N232   1.312       .  A
N226       Mn255   2.202       .  S
N227        C234   1.354       .  A
N228        N230   1.320       .  A
N228        N229   1.329       .  A
N228       Mn244   2.232       .  S
N229        C235   1.358       .  A
N230        N231   1.317       .  A
N230       Mn255   2.193       .  S
N231        C235   1.346       .  A
N232        N233   1.318       .  A
N232       Mn244   2.166       .  S
N233        C234   1.348       .  A
C234        C308   1.465       .  S
C235        C360   1.480   1_554  S
N236        N242   1.317       .  A
N236        N237   1.316       .  A
N236       Mn266   2.196       .  S
N237        C245   1.347       .  A
N238        N239   1.319       .  A
N238        N240   1.317       .  A
N238       Mn244   2.195       .  S
N239        C246   1.346       .  A
N240        N241   1.330       .  A
N240       Mn266   2.247       .  S
N241        C246   1.364       .  A
N242        N243   1.322       .  A
N242       Mn244   2.202       .  S
N243        C245   1.355       .  A
Mn244      Cl268   2.567       .  S
C245        C276   1.466       .  S
C246        C363   1.489       .  S
N247        N248   1.323       .  A
N247        N253   1.318       .  A
N247       Mn255   2.217       .  S
N248        C256   1.355       .  A
N249        N251   1.315       .  A
N249        N982   1.324       .  A
N249       Mn267   2.220       .  S
N250        N981   1.318   1_545  A
N250        C257   1.350       .  A
N251        N252   1.315       .  A
N251       Mn255   2.171       .  S
N252        C989   1.344       .  A
N253        N254   1.324       .  A
N253       Mn267   2.207       .  S
N254        C256   1.351       .  A
Mn255      Cl268   2.522       .  S
C256        C319   1.487       .  S
C257        N984   1.351   1_545  A
C257        C272   1.460       .  S
N258        N259   1.323       .  A
N258        N264   1.316       .  A
N258       Mn266   2.204       .  S
N259        C269   1.354       .  A
N260        N261   1.324       .  A
N260        N262   1.320       .  A
N260       Mn267   2.229       .  S
N261        C270   1.356       .  A
N262        N263   1.322       .  A
N262       Mn266   2.223       .  S
N263        C270   1.354       .  A
N264        N265   1.317       .  A
N264       Mn267   2.188       .  S
N265        C269   1.348       .  A
Mn266      Cl268   2.542       .  S
Mn267      Cl268   2.558       .  S
C269        C324   1.473       .  S
C270        C303   1.487       .  S
C271        C272   1.343       .  D
C271        H273   1.086       .  S
C272        H274   1.087       .  S
C275        C276   1.339       .  D
C275        H277   1.086       .  S
C276        H278   1.087       .  S
C279        C280   1.341       .  D
C279        H281   1.086       .  S
C280        H282   1.086       .  S
C283        C650   1.345       .  D
C283        H285   1.085   1_554  S
C284        C649   1.334       .  D
C284        H286   1.087       .  S
C287       C1386   1.345       .  D
C287        H289   1.086   1_554  S
C288       C1385   1.349       .  D
C288        H290   1.086   1_545  S
C291       C1024   1.345       .  D
C291        H293   1.086       .  S
C292       C1023   1.344   1_545  D
C292        H294   1.086   1_545  S
C295        C296   1.337       .  D
C295        H297   1.086       .  S
C296        H298   1.086       .  S
C299        C300   1.344       .  D
C299        H301   1.085       .  S
C300        H302   1.085       .  S
C303        C304   1.349       .  D
C303        H305   1.085       .  S
C304        H306   1.086       .  S
C307        C308   1.335       .  D
C307        H309   1.086       .  S
C308        H310   1.086       .  S
C311       C2142   1.349       .  D
C311       H1777   1.086       .  S
C312       C2141   1.342   1_454  D
C312        H314   1.086   1_455  S
H313       C1775   1.086       .  S
C315       C1780   1.345       .  D
C315        H317   1.085       .  S
C316       C1779   1.341       .  D
C316        H318   1.087       .  S
C319       C1418   1.342   1_554  D
C319        H321   1.086       .  S
C320       C1417   1.339       .  D
C320        H322   1.086   1_545  S
C323       C1056   1.334       .  D
C323        H325   1.087   1_545  S
C324       C1055   1.344       .  D
C324        H326   1.086       .  S
C327        C328   1.331       .  D
C327        H329   1.086       .  S
C328        H330   1.086       .  S
C331        C332   1.328       .  D
C331        H333   1.086       .  S
C332        H334   1.086       .  S
C335       C2166   1.342   1_454  D
C335        H337   1.085   1_554  S
C336       C2165   1.342       .  D
C336        H338   1.085       .  S
C339       C1804   1.332       .  D
C339        H341   1.086       .  S
C340       C1803   1.336   1_655  D
C340        H342   1.086       .  S
C343        C344   1.335       .  D
C343        H345   1.087       .  S
C344        H346   1.086       .  S
C347        C348   1.347       .  D
C347        H349   1.086       .  S
C348        H350   1.086       .  S
C351        C352   1.335       .  D
C351        H353   1.086       .  S
C352        H354   1.086       .  S
C355        C356   1.337       .  D
C355        H357   1.086       .  S
C356        H358   1.086       .  S
C359        C726   1.339       .  D
C359        H361   1.087       .  S
C360        C725   1.344       .  D
C360        H362   1.089       .  S
C363        C364   1.339       .  D
C363        H365   1.086       .  S
C364        H366   1.086       .  S
N367        N368   1.320       .  A
N367        N373   1.314       .  A
N367       Mn396   2.195       .  S
N368        C375   1.349       .  A
N369        N371   1.317       .  A
N369        N370   1.324       .  A
N369       Mn385   2.218       .  S
N370        C376   1.355       .  A
N371        N372   1.320       .  A
N371       Mn396   2.206       .  S
N372        C376   1.352       .  A
N373        N374   1.323       .  A
N373       Mn385   2.204       .  S
N374        C375   1.356       .  A
C375        C710   1.475       .  S
C376        C725   1.479       .  S
N377        N383   1.318       .  A
N377        N378   1.321       .  A
N377       Mn407   2.213       .  S
N378        C386   1.350       .  A
N379        N380   1.317       .  A
N379        N381   1.318       .  A
N379       Mn385   2.191       .  S
N380        C387   1.345       .  A
N381        N382   1.327       .  A
N381       Mn407   2.238       .  S
N382        C387   1.362       .  A
N383        N384   1.321       .  A
N383       Mn385   2.208       .  S
N384        C386   1.354       .  A
Mn385      Cl409   2.545       .  S
C386        C721   1.474       .  S
C387        C730   1.480       .  S
N388        N389   1.323       .  A
N388        N394   1.319       .  A
N388       Mn396   2.218       .  S
N389        C397   1.355       .  A
N390        N392   1.313       .  A
N390       N1855   1.316       .  A
N390       Mn408   2.182       .  S
N391       N1854   1.321   1_455  A
N391        C398   1.355       .  A
N392        N393   1.317       .  A
N392       Mn396   2.171       .  S
N393       C1862   1.346       .  A
N394        N395   1.318       .  A
N394       Mn408   2.179       .  S
N395        C397   1.344       .  A
Mn396      Cl409   2.541       .  S
C397        C702   1.470       .  S
C398       N1857   1.343   1_455  A
C398        C718   1.453       .  S
N399        N400   1.330       .  A
N399        N405   1.315       .  A
N399       Mn407   2.252       .  S
N400        C410   1.365       .  A
N401        N402   1.319       .  A
N401        N403   1.316       .  A
N401       Mn408   2.198       .  S
N402        C411   1.353       .  A
N403        N404   1.322       .  A
N403       Mn407   2.211       .  S
N404        C411   1.352       .  A
N405        N406   1.317       .  A
N405       Mn408   2.171       .  S
N406        C410   1.342       .  A
Mn407      Cl409   2.555       .  S
Mn408      Cl409   2.536       .  S
C410        C705   1.485       .  S
C411        C714   1.474       .  S
N412        N413   1.322       .  A
N412        N418   1.318       .  A
N412       Mn441   2.209       .  S
N413        C420   1.354       .  A
N414        N416   1.312       .  A
N414       N1879   1.322       .  A
N414       Mn430   2.189       .  S
N415       N1878   1.322   1_455  A
N415        C421   1.353       .  A
N416        N417   1.315       .  A
N416       Mn441   2.179       .  S
N417       C1885   1.350       .  A
N418        N419   1.321       .  A
N418       Mn430   2.198       .  S
N419        C420   1.349       .  A
C420        C681   1.476       .  S
C421       N1881   1.349       .  A
C421        C693   1.465       .  S
N422        N428   1.316       .  A
N422        N423   1.327       .  A
N422       Mn452   2.230       .  S
N423        C431   1.359       .  A
N424        N425   1.316       .  A
N424        N426   1.318       .  A
N424       Mn430   2.185       .  S
N425        C432   1.346       .  A
N426        N427   1.325       .  A
N426       Mn452   2.228       .  S
N427        C432   1.357       .  A
N428        N429   1.313       .  A
N428       Mn430   2.172       .  S
N429        C431   1.343       .  A
Mn430      Cl454   2.540       .  S
C431        C677   1.463       .  S
C432        C713   1.468       .  S
N433        N434   1.318       .  A
N433        N439   1.314       .  A
N433       Mn441   2.180       .  S
N434       C1174   1.347   1_545  A
N435        N437   1.318       .  A
N435        N436   1.321       .  A
N435       Mn453   2.198       .  S
N436        C443   1.349       .  A
N437        N438   1.321       .  A
N437       Mn441   2.206       .  S
N438        C443   1.353       .  A
N439       N1172   1.318       .  A
N439       Mn453   2.190       .  S
N440       N1171   1.317       .  A
N440        C442   1.346       .  A
Mn441      Cl454   2.543       .  S
C442       N1166   1.358       .  A
C442        C709   1.472       .  S
C443        C689   1.476       .  S
N444        N445   1.320       .  A
N444        N450   1.318       .  A
N444       Mn452   2.220       .  S
N445        C455   1.356       .  A
N446        N447   1.318       .  A
N446        N448   1.316       .  A
N446       Mn453   2.189       .  S
N447        C456   1.349       .  A
N448        N449   1.327       .  A
N448       Mn452   2.232       .  S
N449        C456   1.359       .  A
N450        N451   1.321       .  A
N450       Mn453   2.198       .  S
N451        C455   1.350       .  A
Mn452      Cl454   2.557       .  S
Mn453      Cl454   2.541       .  S
C455        C698   1.476       .  S
C456        C686   1.484       .  S
N457        N458   1.324       .  A
N457        N463   1.314       .  A
N457       Mn486   2.207       .  S
N458        C465   1.356       .  A
N459        N461   1.315       .  A
N459        N460   1.319       .  A
N459       Mn475   2.180       .  S
N460        C466   1.349       .  A
N461        N462   1.321       .  A
N461       Mn486   2.216       .  S
N462        C466   1.356       .  A
N463        N464   1.319       .  A
N463       Mn475   2.196       .  S
N464        C465   1.351       .  A
C465        C706   1.481       .  S
C466        C666   1.471       .  S
N467        N473   1.318       .  A
N467        N468   1.320       .  A
N467       Mn497   2.205       .  S
N468        C476   1.351       .  A
N469       N1934   1.318   1_455  A
N469        N471   1.315       .  A
N469       Mn475   2.165       .  S
N470       N1933   1.315       .  A
N470        C477   1.342       .  A
N471        N472   1.323       .  A
N471       Mn497   2.230       .  S
N472       C1941   1.359   1_455  A
N473        N474   1.322       .  A
N473       Mn475   2.206       .  S
N474        C476   1.351       .  A
Mn475      Cl499   2.548       .  S
C476        C701   1.467   1_455  S
C477       N1936   1.360       .  A
C477        C673   1.468       .  S
N478        N479   1.315       .  A
N478        N484   1.318       .  A
N478       Mn486   2.181       .  S
N479        C487   1.343       .  A
N480        N482   1.316       .  A
N480        N481   1.317       .  A
N480       Mn498   2.186       .  S
N481        C488   1.345       .  A
N482        N483   1.327       .  A
N482       Mn486   2.227       .  S
N483        C488   1.360       .  A
N484        N485   1.327       .  A
N484       Mn498   2.234       .  S
N485        C487   1.361       .  A
Mn486      Cl499   2.545       .  S
C487        C670   1.473       .  S
C488        C657   1.475       .  S
N489        N490   1.317       .  A
N489        N495   1.315       .  A
N489       Mn497   2.193       .  S
N490       C1232   1.353       .  A
N491        N492   1.328       .  A
N491        N493   1.322       .  A
N491       Mn498   2.225       .  S
N492        C501   1.356       .  A
N493        N494   1.323       .  A
N493       Mn497   2.232       .  S
N494        C501   1.351       .  A
N495       N1228   1.317       .  A
N495       Mn498   2.178       .  S
N496       N1227   1.319   1_545  A
N496        C500   1.349       .  A
Mn497      Cl499   2.533       .  S
Mn498      Cl499   2.559       .  S
C500       N1222   1.355   1_545  A
C500        C661   1.470       .  S
C501        C653   1.490       .  S
N502        N503   1.324       .  A
N502        N508   1.317       .  A
N502       Mn531   2.227       .  S
N503        C510   1.356       .  A
N504        N506   1.316       .  A
N504        N505   1.318       .  A
N504       Mn520   2.191       .  S
N505        C511   1.350       .  A
N506        N507   1.323       .  A
N506       Mn531   2.213       .  S
N507        C511   1.355       .  A
N508        N509   1.318       .  A
N508       Mn520   2.189       .  S
N509        C510   1.348       .  A
C510        C722   1.471       .  S
C511        C650   1.476   1_556  S
N512        N518   1.314       .  A
N512        N513   1.318       .  A
N512       Mn542   2.193       .  S
N513        C521   1.350       .  A
N514        N515   1.324       .  A
N514        N516   1.315       .  A
N514       Mn520   2.212       .  S
N515        C522   1.356       .  A
N516        N517   1.316       .  A
N516       Mn542   2.183       .  S
N517        C522   1.346       .  A
N518        N519   1.318       .  A
N518       Mn520   2.178       .  S
N519        C521   1.351       .  A
Mn520      Cl544   2.565       .  S
C521        C694   1.462       .  S
C522        C645   1.466       .  S
N523        N524   1.326       .  A
N523        N529   1.318       .  A
N523       Mn531   2.233       .  S
N524        C532   1.357       .  A
N525        N527   1.318       .  A
N525        N526   1.325       .  A
N525       Mn543   2.225       .  S
N526        C533   1.358       .  A
N527        N528   1.316       .  A
N527       Mn531   2.191       .  S
N528        C533   1.346       .  A
N529        N530   1.322       .  A
N529       Mn543   2.211       .  S
N530        C532   1.353       .  A
Mn531      Cl544   2.536       .  S
C532        C654   1.489   1_556  S
C533        C697   1.472       .  S
N534        N535   1.317       .  A
N534        N540   1.318       .  A
N534       Mn542   2.187       .  S
N535        C545   1.345       .  A
N536       N1269   1.322   1_545  A
N536        N538   1.315       .  A
N536       Mn543   2.207       .  S
N537       N1268   1.317       .  A
N537        C546   1.346       .  A
N538        N539   1.316       .  A
N538       Mn542   2.181       .  S
N539       C1278   1.349   1_545  A
N540        N541   1.327       .  A
N540       Mn543   2.227       .  S
N541        C545   1.358       .  A
Mn542      Cl544   2.514       .  S
Mn543      Cl544   2.573       .  S
C545        C658   1.471       .  S
C546       N1271   1.352       .  A
C546        C717   1.461       .  S
N547        N548   1.314       .  A
N547        N553   1.312       .  A
N547       Mn576   2.178       .  S
N548       C2019   1.350   1_455  A
N549        N551   1.319       .  A
N549        N550   1.327       .  A
N549       Mn565   2.223       .  S
N550        C556   1.356       .  A
N551        N552   1.319       .  A
N551       Mn576   2.201       .  S
N552        C556   1.347       .  A
N553       N2018   1.320   1_455  A
N553       Mn565   2.178       .  S
N554       N2017   1.319       .  A
N554        C555   1.349       .  A
C555       N2012   1.351       .  A
C555        C637   1.461       .  S
C556        C678   1.479       .  S
N557        N563   1.318       .  A
N557        N558   1.316       .  A
N557       Mn587   2.191       .  S
N558        C566   1.346       .  A
N559        N560   1.316       .  A
N559        N561   1.317       .  A
N559       Mn565   2.185       .  S
N560        C567   1.344       .  A
N561        N562   1.326       .  A
N561       Mn587   2.228       .  S
N562        C567   1.359       .  A
N563        N564   1.323       .  A
N563       Mn565   2.212       .  S
N564        C566   1.357       .  A
Mn565      Cl589   2.561       .  S
C566        C665   1.468       .  S
C567        C682   1.470       .  S
N568        N569   1.316       .  A
N568        N574   1.316       .  A
N568       Mn576   2.192       .  S
N569        C577   1.352       .  A
N570        N572   1.315       .  A
N570        N571   1.323       .  A
N570       Mn588   2.205       .  S
N571        C578   1.357       .  A
N572        N573   1.316       .  A
N572       Mn576   2.182       .  S
N573        C578   1.346       .  A
N574        N575   1.320       .  A
N574       Mn588   2.185       .  S
N575        C577   1.348       .  A
Mn576      Cl589   2.517       .  S
C577        C649   1.468       .  S
C578        C662   1.467       .  S
N579        N580   1.324       .  A
N579        N585   1.315       .  A
N579       Mn587   2.206       .  S
N580        C590   1.354       .  A
N581        N582   1.322       .  A
N581        N583   1.317       .  A
N581       Mn588   2.201       .  S
N582        C591   1.352       .  A
N583        N584   1.320       .  A
N583       Mn587   2.215       .  S
N584        C591   1.355       .  A
N585        N586   1.317       .  A
N585       Mn588   2.189       .  S
N586        C590   1.350       .  A
Mn587      Cl589   2.535       .  S
Mn588      Cl589   2.558       .  S
C590        C646   1.476       .  S
C591        C641   1.478       .  S
N592        N593   1.312       .  A
N592        N598   1.312       .  A
N592       Mn621   2.148       .  S
N593        C600   1.340       .  A
N594        N596   1.319       .  A
N594        N595   1.322       .  A
N594       Mn610   2.202       .  S
N595        C601   1.350       .  A
N596        N597   1.321       .  A
N596       Mn621   2.217       .  S
N597        C601   1.356       .  A
N598        N599   1.326       .  A
N598       Mn610   2.225       .  S
N599        C600   1.361       .  A
C600        C674   1.464       .  S
C601        C726   1.481       .  S
N602        N608   1.317       .  A
N602        N603   1.317       .  A
N602       Mn632   2.191       .  S
N603        C611   1.347       .  A
N604        N605   1.316       .  A
N604        N606   1.318       .  A
N604       Mn610   2.177       .  S
N605        C612   1.344       .  A
N606        N607   1.328       .  A
N606       Mn632   2.252       .  S
N607        C612   1.363       .  A
N608        N609   1.325       .  A
N608       Mn610   2.218       .  S
N609        C611   1.357       .  A
Mn610      Cl634   2.555       .  S
C611        C642   1.472       .  S
C612        C729   1.480       .  S
N613        N614   1.319       .  A
N613        N619   1.317       .  A
N613       Mn621   2.188       .  S
N614        C622   1.351       .  A
N615        N617   1.314       .  A
N615       N1348   1.317       .  A
N615       Mn633   2.170       .  S
N616       N1347   1.318   1_545  A
N616        C623   1.352       .  A
N617        N618   1.316       .  A
N617       Mn621   2.190       .  S
N618       C1355   1.347       .  A
N619        N620   1.324       .  A
N619       Mn633   2.216       .  S
N620        C622   1.352       .  A
Mn621      Cl634   2.527       .  S
C622        C685   1.482       .  S
C623       N1350   1.347   1_545  A
C623        C638   1.457       .  S
N624        N625   1.322       .  A
N624        N630   1.315       .  A
N624       Mn632   2.199       .  S
N625        C635   1.352       .  A
N626        N627   1.317       .  A
N626        N628   1.318       .  A
N626       Mn633   2.174       .  S
N627        C636   1.346       .  A
N628        N629   1.324       .  A
N628       Mn632   2.246       .  S
N629        C636   1.361       .  A
N630        N631   1.323       .  A
N630       Mn633   2.212       .  S
N631        C635   1.354       .  A
Mn632      Cl634   2.539       .  S
Mn633      Cl634   2.555       .  S
C635        C690   1.481       .  S
C636        C669   1.475       .  S
C637        C638   1.336       .  D
C637        H639   1.087       .  S
C638        H640   1.087       .  S
C641        C642   1.340       .  D
C641        H643   1.086       .  S
C642        H644   1.087       .  S
C645        C646   1.342       .  D
C645        H647   1.086       .  S
C646        H648   1.086       .  S
C649        H651   1.086       .  S
C650        H652   1.085       .  S
C653       C1020   1.355       .  D
C653        H655   1.085       .  S
C654       C1019   1.348   1_545  D
C654        H656   1.085       .  S
C657       C1390   1.336       .  D
C657        H659   1.086       .  S
C658       C1389   1.346   1_545  D
C658        H660   1.086       .  S
C661        C662   1.337       .  D
C661        H663   1.085       .  S
C662        H664   1.086       .  S
C665        C666   1.337       .  D
C665        H667   1.086       .  S
C666        H668   1.086       .  S
C669        C670   1.334       .  D
C669        H671   1.086       .  S
C670        H672   1.086       .  S
C673        C674   1.329       .  D
C673        H675   1.087       .  S
C674        H676   1.087       .  S
C677       C1776   1.342   1_556  D
C677       H2143   1.086       .  S
C678       C1775   1.350   1_455  D
C678        H680   1.086       .  S
H679       C2141   1.086   1_455  S
C681       C2146   1.337       .  D
C681        H683   1.086       .  S
C682       C2145   1.337       .  D
C682        H684   1.086   1_455  S
C685       C1052   1.342       .  D
C685        H687   1.086       .  S
C686       C1051   1.350   1_545  D
C686        H688   1.086   1_556  S
C689       C1422   1.339       .  D
C689        H691   1.087   1_545  S
C690       C1421   1.343       .  D
C690        H692   1.087       .  S
C693        C694   1.341       .  D
C693        H695   1.085       .  S
C694        H696   1.086       .  S
C697        C698   1.339       .  D
C697        H699   1.086       .  S
C698        H700   1.086       .  S
C701       C1800   1.337       .  D
C701        H703   1.086       .  S
C702       C1799   1.331   1_556  D
C702        H704   1.087       .  S
C705       C2170   1.334       .  D
C705        H707   1.086       .  S
C706       C2169   1.346   1_455  D
C706        H708   1.085       .  S
C709        C710   1.337       .  D
C709        H711   1.087       .  S
C710        H712   1.086       .  S
C713        C714   1.338       .  D
C713        H715   1.087       .  S
C714        H716   1.086       .  S
C717        C718   1.333       .  D
C717        H719   1.087       .  S
C718        H720   1.086       .  S
C721        C722   1.338       .  D
C721        H723   1.086       .  S
C722        H724   1.087       .  S
C725        H727   1.085   1_556  S
C726        H728   1.086       .  S
C729        C730   1.336       .  D
C729        H731   1.087       .  S
C730        H732   1.086       .  S
N733        N734   1.316       .  A
N733        N739   1.313       .  A
N733       Mn762   2.178       .  S
N734        C741   1.345       .  A
N735        N737   1.319       .  A
N735        N736   1.321       .  A
N735       Mn751   2.198       .  S
N736        C742   1.348       .  A
N737        N738   1.322       .  A
N737       Mn762   2.211       .  S
N738        C742   1.353       .  A
N739        N740   1.318       .  A
N739       Mn751   2.183       .  S
N740        C741   1.352       .  A
C741       C1076   1.452       .  S
C742       C1091   1.474       .  S
N743        N749   1.317       .  A
N743        N744   1.320       .  A
N743       Mn773   2.206       .  S
N744        C752   1.350       .  A
N745        N746   1.320       .  A
N745        N747   1.315       .  A
N745       Mn751   2.186       .  S
N746        C753   1.348       .  A
N747        N748   1.327       .  A
N747       Mn773   2.238       .  S
N748        C753   1.361       .  A
N749        N750   1.320       .  A
N749       Mn751   2.204       .  S
N750        C752   1.354       .  A
Mn751      Cl775   2.557       .  S
C752       C1087   1.471       .  S
C753       C1096   1.485       .  S
N754        N755   1.321       .  A
N754        N760   1.319       .  A
N754       Mn762   2.208       .  S
N755        C763   1.351       .  A
N756        N758   1.313       .  A
N756       N2221   1.319       .  A
N756       Mn774   2.192       .  S
N757       N2220   1.319   1_455  A
N757        C764   1.354       .  A
N758        N759   1.318       .  A
N758       Mn762   2.182       .  S
N759       C2228   1.347       .  A
N760        N761   1.323       .  A
N760       Mn774   2.211       .  S
N761        C763   1.352       .  A
Mn762      Cl775   2.526       .  S
C763       C1068   1.476       .  S
C764       N2223   1.346   1_455  A
C764       C1084   1.461       .  S
N765        N766   1.324       .  A
N765        N771   1.316       .  A
N765       Mn773   2.226       .  S
N766        C776   1.360       .  A
N767        N768   1.324       .  A
N767        N769   1.318       .  A
N767       Mn774   2.217       .  S
N768        C777   1.357       .  A
N769        N770   1.321       .  A
N769       Mn773   2.216       .  S
N770        C777   1.350       .  A
N771        N772   1.319       .  A
N771       Mn774   2.189       .  S
N772        C776   1.346       .  A
Mn773      Cl775   2.538       .  S
Mn774      Cl775   2.560       .  S
C776       C1071   1.478       .  S
C777       C1080   1.478       .  S
N778        N779   1.316       .  A
N778        N784   1.315       .  A
N778       Mn807   2.186       .  S
N779        C786   1.350       .  A
N780        N782   1.314       .  A
N780       N2245   1.325       .  A
N780       Mn796   2.228       .  S
N781       N2244   1.325   1_455  A
N781        C787   1.362       .  A
N782        N783   1.313       .  A
N782       Mn807   2.156       .  S
N783       C2251   1.341       .  A
N784        N785   1.323       .  A
N784       Mn796   2.203       .  S
N785        C786   1.353       .  A
C786       C1047   1.474       .  S
C787       N2247   1.340   1_455  A
C787       C1059   1.465       .  S
N788        N794   1.318       .  A
N788        N789   1.327       .  A
N788       Mn818   2.237       .  S
N789        C797   1.358       .  A
N790        N791   1.321       .  A
N790        N792   1.321       .  A
N790       Mn796   2.217       .  S
N791        C798   1.352       .  A
N792        N793   1.324       .  A
N792       Mn818   2.229       .  S
N793        C798   1.356       .  A
N794        N795   1.317       .  A
N794       Mn796   2.186       .  S
N795        C797   1.348       .  A
Mn796      Cl820   2.551       .  S
C797       C1043   1.484       .  S
C798       C1079   1.480       .  S
N799        N800   1.318       .  A
N799        N805   1.310       .  A
N799       Mn807   2.185       .  S
N801        N803   1.315       .  A
N801        N802   1.322       .  A
N801       Mn819   2.203       .  S
N802        C809   1.354       .  A
N803        N804   1.316       .  A
N803       Mn807   2.180       .  S
N804        C809   1.346       .  A
N805       Mn819   2.157       .  S
N806        C808   1.347       .  A
Mn807      Cl820   2.528       .  S
C808       C1075   1.456       .  S
C809       C1055   1.463       .  S
N810        N811   1.322       .  A
N810        N816   1.317       .  A
N810       Mn818   2.233       .  S
N811        C821   1.359       .  A
N812        N813   1.316       .  A
N812        N814   1.318       .  A
N812       Mn819   2.192       .  S
N813        C822   1.346       .  A
N814        N815   1.328       .  A
N814       Mn818   2.234       .  S
N815        C822   1.360       .  A
N816        N817   1.316       .  A
N816       Mn819   2.160       .  S
N817        C821   1.343       .  A
Mn818      Cl820   2.545       .  S
Mn819      Cl820   2.550       .  S
C821       C1064   1.468       .  S
C822       C1052   1.474       .  S
N823        N824   1.330       .  A
N823        N829   1.315       .  A
N823       Mn852   2.243       .  S
N824        C831   1.364       .  A
N825        N827   1.315       .  A
N825        N826   1.316       .  A
N825       Mn841   2.161       .  S
N826        C832   1.346       .  A
N827        N828   1.322       .  A
N827       Mn852   2.224       .  S
N828        C832   1.357       .  A
N829        N830   1.314       .  A
N829       Mn841   2.170       .  S
N830        C831   1.342       .  A
C831       C1072   1.477       .  S
C832       C1032   1.466       .  S
N833        N839   1.315       .  A
N833        N834   1.318       .  A
N833       Mn863   2.207       .  S
N834        C842   1.355       .  A
N835       N2300   1.316   1_455  A
N835        N837   1.312       .  A
N835       Mn841   2.157       .  S
N836       N2299   1.320       .  A
N836        C843   1.353       .  A
N837        N838   1.320       .  A
N837       Mn863   2.205       .  S
N838       C2307   1.357   1_455  A
N839        N840   1.323       .  A
N839       Mn841   2.194       .  S
N840        C842   1.351       .  A
Mn841      Cl865   2.539       .  S
C842       C1067   1.478       .  S
C843       N2302   1.349       .  A
C843       C1039   1.463       .  S
N844        N845   1.316       .  A
N844        N850   1.319       .  A
N844       Mn852   2.201       .  S
N845        C853   1.347       .  A
N846        N848   1.318       .  A
N846        N847   1.318       .  A
N846       Mn864   2.198       .  S
N847        C854   1.346       .  A
N848        N849   1.329       .  A
N848       Mn852   2.236       .  S
N849        C854   1.361       .  A
N850        N851   1.326       .  A
N850       Mn864   2.226       .  S
N851        C853   1.359       .  A
Mn852      Cl865   2.555       .  S
C853       C1036   1.474       .  S
C854       C1023   1.479       .  S
N855        N856   1.320       .  A
N855        N861   1.315       .  A
N855       Mn863   2.202       .  S
N857        N858   1.328       .  A
N857        N859   1.319       .  A
N857       Mn864   2.234       .  S
N858        C867   1.358       .  A
N859        N860   1.319       .  A
N859       Mn863   2.201       .  S
N860        C867   1.347       .  A
N861       Mn864   2.183       .  S
N862        C866   1.344       .  A
Mn863      Cl865   2.536       .  S
Mn864      Cl865   2.551       .  S
C866       C1027   1.461       .  S
C867       C1019   1.482       .  S
N868        N869   1.323       .  A
N868        N874   1.317       .  A
N868       Mn897   2.230       .  S
N869        C876   1.356       .  A
N870        N872   1.315       .  A
N870        N871   1.319       .  A
N870       Mn886   2.206       .  S
N871        C877   1.353       .  A
N872        N873   1.320       .  A
N872       Mn897   2.186       .  S
N873        C877   1.351       .  A
N874        N875   1.317       .  A
N874       Mn886   2.176       .  S
N875        C876   1.348       .  A
C876       C1088   1.468       .  S
C877       C1016   1.472       .  S
N878        N884   1.314       .  A
N878        N879   1.324       .  A
N878       Mn908   2.236       .  S
N879        C887   1.361       .  A
N880        N881   1.327       .  A
N880        N882   1.316       .  A
N880       Mn886   2.235       .  S
N881        C888   1.360       .  A
N882        N883   1.316       .  A
N882       Mn908   2.181       .  S
N883        C888   1.345       .  A
N884        N885   1.314       .  A
N884       Mn886   2.148       .  S
N885        C887   1.341       .  A
Mn886      Cl910   2.556       .  S
C887       C1060   1.467       .  S
C888       C1011   1.474       .  S
N889        N890   1.329       .  A
N889        N895   1.317       .  A
N889       Mn897   2.251       .  S
N890        C898   1.362       .  A
N891        N893   1.316       .  A
N891        N892   1.326       .  A
N891       Mn909   2.230       .  S
N892        C899   1.361       .  A
N893        N894   1.312       .  A
N893       Mn897   2.157       .  S
N894        C899   1.340       .  A
N895        N896   1.321       .  A
N895       Mn909   2.200       .  S
N896        C898   1.350       .  A
Mn897      Cl910   2.541       .  S
C898       C1020   1.496       .  S
C899       C1063   1.464       .  S
N900        N901   1.322       .  A
N900        N906   1.320       .  A
N900       Mn908   2.217       .  S
N901        C911   1.352       .  A
N902        N904   1.316       .  A
N902       Mn909   2.196       .  S
N903        C912   1.345       .  A
N904        N905   1.317       .  A
N904       Mn908   2.186       .  S
N906        N907   1.325       .  A
N906       Mn909   2.217       .  S
N907        C911   1.354       .  A
Mn908      Cl910   2.529       .  S
Mn909      Cl910   2.559       .  S
C911       C1024   1.486       .  S
C912       C1083   1.460       .  S
N913        N914   1.316       .  A
N913        N919   1.312       .  A
N913       Mn942   2.189       .  S
N914       C2385   1.352   1_455  A
N915        N917   1.316       .  A
N915        N916   1.324       .  A
N915       Mn931   2.210       .  S
N916        C922   1.356       .  A
N917        N918   1.315       .  A
N917       Mn942   2.177       .  S
N918        C922   1.344       .  A
N919       N2384   1.321   1_455  A
N919       Mn931   2.182       .  S
N920       N2383   1.316       .  A
N920        C921   1.344       .  A
C921       N2378   1.359       .  A
C921       C1003   1.469       .  S
C922       C1044   1.462       .  S
N923        N929   1.315       .  A
N923        N924   1.317       .  A
N923       Mn953   2.184       .  S
N924        C932   1.346       .  A
N925        N926   1.316       .  A
N925        N927   1.316       .  A
N925       Mn931   2.187       .  S
N926        C933   1.345       .  A
N927        N928   1.327       .  A
N927       Mn953   2.230       .  S
N928        C933   1.360       .  A
N929        N930   1.321       .  A
N929       Mn931   2.203       .  S
N930        C932   1.356       .  A
Mn931      Cl955   2.568       .  S
C932       C1031   1.466       .  S
C933       C1048   1.473       .  S
N934        N935   1.318       .  A
N934        N940   1.316       .  A
N934       Mn942   2.191       .  S
N935        C943   1.347       .  A
N936        N938   1.315       .  A
N936        N937   1.319       .  A
N936       Mn954   2.200       .  S
N937        C944   1.356       .  A
N938        N939   1.315       .  A
N938       Mn942   2.173       .  S
N939        C944   1.345       .  A
N940        N941   1.329       .  A
N940       Mn954   2.238       .  S
N941        C943   1.360       .  A
Mn942      Cl955   2.511       .  S
C943       C1015   1.482       .  S
C944       C1028   1.461       .  S
N945        N946   1.320       .  A
N945        N951   1.318       .  A
N945       Mn953   2.192       .  S
N946        C956   1.349       .  A
N947        N948   1.322       .  A
N947        N949   1.318       .  A
N947       Mn954   2.206       .  S
N948        C957   1.353       .  A
N949        N950   1.317       .  A
N949       Mn953   2.203       .  S
N950        C957   1.351       .  A
N951        N952   1.324       .  A
N951       Mn954   2.228       .  S
N952        C956   1.356       .  A
Mn953      Cl955   2.527       .  S
Mn954      Cl955   2.569       .  S
C956       C1012   1.480       .  S
C957       C1007   1.471       .  S
N958        N959   1.317       .  A
N958        N964   1.313       .  A
N958       Mn987   2.191       .  S
N959        C966   1.352       .  A
N960        N962   1.319       .  A
N960        N961   1.321       .  A
N960       Mn976   2.201       .  S
N961        C967   1.350       .  A
N962        N963   1.319       .  A
N962       Mn987   2.206       .  S
N963        C967   1.351       .  A
N964        N965   1.320       .  A
N964       Mn976   2.181       .  S
N965        C966   1.351       .  A
C966       C1040   1.466       .  S
C967       C1092   1.469       .  S
N968        N974   1.317       .  A
N968        N969   1.318       .  A
N968       Mn998   2.200       .  S
N969        C977   1.350       .  A
N970        N971   1.318       .  A
N970        N972   1.316       .  A
N970       Mn976   2.183       .  S
N971        C978   1.347       .  A
N972        N973   1.328       .  A
N972       Mn998   2.246       .  S
N973        C978   1.362       .  A
N974        N975   1.321       .  A
N974       Mn976   2.199       .  S
N975        C977   1.353       .  A
Mn976     Cl1000   2.552       .  S
C977       C1008   1.467       .  S
C978       C1095   1.486       .  S
N979        N980   1.320       .  A
N979        N985   1.318       .  A
N979       Mn987   2.206       .  S
N980        C988   1.350       .  A
N981        N983   1.313       .  A
N981       Mn999   2.174       .  S
N982        C989   1.359       .  A
N983        N984   1.318       .  A
N983       Mn987   2.196       .  S
N985        N986   1.324       .  A
N985       Mn999   2.204       .  S
N986        C988   1.353       .  A
Mn987     Cl1000   2.527       .  S
C988       C1051   1.476   1_554  S
C989       C1004   1.468       .  S
N990        N991   1.323       .  A
N990        N996   1.315       .  A
N990       Mn998   2.205       .  S
N991       C1001   1.356       .  A
N992        N993   1.322       .  A
N992        N994   1.319       .  A
N992       Mn999   2.202       .  S
N993       C1002   1.352       .  A
N994        N995   1.320       .  A
N994       Mn998   2.226       .  S
N995       C1002   1.355       .  A
N996        N997   1.314       .  A
N996       Mn999   2.170       .  S
N997       C1001   1.342       .  A
Mn998     Cl1000   2.548       .  S
Mn999     Cl1000   2.548       .  S
C1001      C1056   1.457   1_565  S
C1002      C1035   1.480       .  S
C1003      C1004   1.333       .  D
C1003      H1005   1.087       .  S
C1004      H1006   1.087       .  S
C1007      C1008   1.342       .  D
C1007      H1009   1.086       .  S
C1008      H1010   1.087       .  S
C1011      C1012   1.340       .  D
C1011      H1013   1.086       .  S
C1012      H1014   1.086       .  S
C1015      C1382   1.347       .  D
C1015      H1017   1.085   1_554  S
C1016      C1381   1.340       .  D
C1016      H1018   1.085       .  S
C1019      H1021   1.085   1_554  S
C1020      H1022   1.085       .  S
C1023      H1025   1.086   1_565  S
C1024      H1026   1.086       .  S
C1027      C1028   1.333       .  D
C1027      H1029   1.086       .  S
C1028      H1030   1.086       .  S
C1031      C1032   1.335       .  D
C1031      H1033   1.086       .  S
C1032      H1034   1.086       .  S
C1035      C1036   1.340       .  D
C1035      H1037   1.085       .  S
C1036      H1038   1.086       .  S
C1039      C1040   1.339       .  D
C1039      H1041   1.086       .  S
C1040      H1042   1.086       .  S
C1043      C2874   1.349       .  D
C1043      H2509   1.086       .  S
C1044      C2873   1.341   1_455  D
C1044      H1046   1.086   1_554  S
H1045      C2507   1.086       .  S
C1047      C2512   1.339       .  D
C1047      H1049   1.086       .  S
C1048      C2511   1.341       .  D
C1048      H1050   1.087   1_455  S
C1051      H1053   1.085       .  S
C1052      H1054   1.087       .  S
C1055      H1057   1.086       .  S
C1056      H1058   1.087       .  S
C1059      C1060   1.329       .  D
C1059      H1061   1.087       .  S
C1060      H1062   1.087       .  S
C1063      C1064   1.330       .  D
C1063      H1065   1.086       .  S
C1064      H1066   1.086       .  S
C1067      C2898   1.338   1_454  D
C1067      H1069   1.085       .  S
C1068      C2897   1.346       .  D
C1068      H1070   1.087       .  S
C1071      C2536   1.335       .  D
C1071      H1073   1.086       .  S
C1072      C2535   1.335       .  D
C1072      H1074   1.086   1_455  S
C1075      C1076   1.332       .  D
C1075      H1077   1.087       .  S
C1076      H1078   1.087       .  S
C1079      C1080   1.342       .  D
C1079      H1081   1.086       .  S
C1080      H1082   1.086       .  S
C1083      C1084   1.333       .  D
C1083      H1085   1.087       .  S
C1084      H1086   1.086       .  S
C1087      C1088   1.337       .  D
C1087      H1089   1.086       .  S
C1088      H1090   1.087       .  S
C1091      C1458   1.335       .  D
C1091      H1093   1.086       .  S
C1092      C1457   1.334   1_554  D
C1092      H1094   1.086       .  S
C1095      C1096   1.355       .  D
C1095      H1097   1.086       .  S
C1096      H1098   1.086       .  S
N1099      N1100   1.320       .  A
N1099      N1105   1.311       .  A
N1099     Mn1128   2.187       .  S
N1100      C1107   1.353       .  A
N1101      N1103   1.316       .  A
N1101      N1102   1.319       .  A
N1101     Mn1117   2.187       .  S
N1102      C1108   1.349       .  A
N1103      N1104   1.321       .  A
N1103     Mn1128   2.212       .  S
N1104      C1108   1.354       .  A
N1105      N1106   1.316       .  A
N1105     Mn1117   2.164       .  S
N1106      C1107   1.346       .  A
C1107      C1442   1.457       .  S
C1108      C1457   1.468       .  S
N1109      N1115   1.316       .  A
N1109      N1110   1.325       .  A
N1109     Mn1139   2.228       .  S
N1110      C1118   1.357       .  A
N1111      N1112   1.313       .  A
N1111      N1113   1.317       .  A
N1111     Mn1117   2.163       .  S
N1112      C1119   1.340       .  A
N1113      N1114   1.329       .  A
N1113     Mn1139   2.254       .  S
N1114      C1119   1.365       .  A
N1115      N1116   1.315       .  A
N1115     Mn1117   2.169       .  S
N1116      C1118   1.344       .  A
Mn1117    Cl1141   2.538       .  S
C1118      C1453   1.465       .  S
C1119      C1462   1.476       .  S
N1120      N1121   1.314       .  A
N1120      N1126   1.319       .  A
N1120     Mn1128   2.187       .  S
N1121      C1129   1.344       .  A
N1122      N1124   1.315       .  A
N1122      N2587   1.318       .  A
N1122     Mn1140   2.191       .  S
N1123      N2586   1.320   1_455  A
N1123      C1130   1.352       .  A
N1124      N1125   1.319       .  A
N1124     Mn1128   2.197       .  S
N1125      C2594   1.350       .  A
N1126      N1127   1.326       .  A
N1126     Mn1140   2.207       .  S
N1127      C1129   1.354       .  A
Mn1128    Cl1141   2.534       .  S
C1129      C1434   1.465       .  S
C1130      N2589   1.351   1_455  A
C1130      C1450   1.465       .  S
N1131      N1132   1.329       .  A
N1131      N1137   1.317       .  A
N1131     Mn1139   2.246       .  S
N1132      C1142   1.363       .  A
N1133      N1134   1.321       .  A
N1133      N1135   1.320       .  A
N1133     Mn1140   2.210       .  S
N1134      C1143   1.353       .  A
N1135      N1136   1.323       .  A
N1135     Mn1139   2.231       .  S
N1136      C1143   1.354       .  A
N1137      N1138   1.318       .  A
N1137     Mn1140   2.186       .  S
N1138      C1142   1.345       .  A
Mn1139    Cl1141   2.554       .  S
Mn1140    Cl1141   2.544       .  S
C1142      C1437   1.484       .  S
C1143      C1446   1.479       .  S
N1144      N1145   1.319       .  A
N1144      N1150   1.317       .  A
N1144     Mn1173   2.206       .  S
N1145      C1152   1.352       .  A
N1146      N1148   1.316       .  A
N1146      N2611   1.318       .  A
N1146     Mn1162   2.182       .  S
N1147      N2610   1.324   1_455  A
N1147      C1153   1.357       .  A
N1148      N1149   1.318       .  A
N1148     Mn1173   2.204       .  S
N1149      C2617   1.355       .  A
N1150      N1151   1.324       .  A
N1150     Mn1162   2.204       .  S
N1151      C1152   1.353       .  A
C1152      C1413   1.481       .  S
C1153      N2613   1.347   1_455  A
C1153      C1425   1.472       .  S
N1154      N1160   1.314       .  A
N1154      N1155   1.326       .  A
N1154     Mn1184   2.214       .  S
N1155      C1163   1.358       .  A
N1156      N1157   1.320       .  A
N1156      N1158   1.318       .  A
N1156     Mn1162   2.202       .  S
N1157      C1164   1.352       .  A
N1158      N1159   1.324       .  A
N1158     Mn1184   2.227       .  S
N1159      C1164   1.355       .  A
N1160      N1161   1.315       .  A
N1160     Mn1162   2.180       .  S
N1161      C1163   1.348       .  A
Mn1162    Cl1186   2.552       .  S
C1163      C1409   1.478   1_556  S
C1164      C1445   1.477       .  S
N1165      N1166   1.326       .  A
N1165      N1171   1.315       .  A
N1165     Mn1173   2.223       .  S
N1167      N1169   1.319       .  A
N1167      N1168   1.326       .  A
N1167     Mn1185   2.224       .  S
N1168      C1175   1.358       .  A
N1169      N1170   1.318       .  A
N1169     Mn1173   2.203       .  S
N1170      C1175   1.347       .  A
N1171     Mn1185   2.181       .  S
N1172      C1174   1.353   1_545  A
Mn1173    Cl1186   2.534       .  S
C1174      C1441   1.459       .  S
C1175      C1421   1.476       .  S
N1176      N1177   1.314       .  A
N1176      N1182   1.317       .  A
N1176     Mn1184   2.182       .  S
N1177      C1187   1.344       .  A
N1178      N1179   1.317       .  A
N1178      N1180   1.319       .  A
N1178     Mn1185   2.197       .  S
N1179      C1188   1.345       .  A
N1180      N1181   1.330       .  A
N1180     Mn1184   2.246       .  S
N1181      C1188   1.362       .  A
N1182      N1183   1.325       .  A
N1182     Mn1185   2.217       .  S
N1183      C1187   1.358       .  A
Mn1184    Cl1186   2.547       .  S
Mn1185    Cl1186   2.558       .  S
C1187      C1430   1.467       .  S
C1188      C1418   1.481       .  S
N1189      N1190   1.329       .  A
N1189      N1195   1.315       .  A
N1189     Mn1218   2.242       .  S
N1190      C1197   1.364       .  A
N1191      N1193   1.314       .  A
N1191      N1192   1.320       .  A
N1191     Mn1207   2.186       .  S
N1192      C1198   1.352       .  A
N1193      N1194   1.317       .  A
N1193     Mn1218   2.195       .  S
N1194      C1198   1.351       .  A
N1195      N1196   1.317       .  A
N1195     Mn1207   2.178       .  S
N1196      C1197   1.344       .  A
C1197      C1438   1.482   1_455  S
C1198      C1398   1.466       .  S
N1199      N1205   1.318       .  A
N1199      N1200   1.322       .  A
N1199     Mn1229   2.219       .  S
N1200      C1208   1.353       .  A
N1201      N2666   1.316   1_455  A
N1201      N1203   1.313       .  A
N1201     Mn1207   2.162       .  S
N1202      N2665   1.316       .  A
N1202      C1209   1.343       .  A
N1203      N1204   1.323       .  A
N1203     Mn1229   2.224       .  S
N1204      C2673   1.359   1_455  A
N1205      N1206   1.322       .  A
N1205     Mn1207   2.203       .  S
N1206      C1208   1.352       .  A
Mn1207    Cl1231   2.552       .  S
C1208      C1433   1.476       .  S
C1209      N2668   1.360       .  A
C1209      C1405   1.470       .  S
N1210      N1211   1.318       .  A
N1210      N1216   1.320       .  A
N1210     Mn1218   2.206       .  S
N1211      C1219   1.348       .  A
N1212      N1214   1.316       .  A
N1212      N1213   1.320       .  A
N1212     Mn1230   2.204       .  S
N1213      C1220   1.351       .  A
N1214      N1215   1.324       .  A
N1214     Mn1218   2.210       .  S
N1215      C1220   1.356       .  A
N1216      N1217   1.326       .  A
N1216     Mn1230   2.233       .  S
N1217      C1219   1.360       .  A
Mn1218    Cl1231   2.547       .  S
C1219      C1402   1.481       .  S
C1220      C1389   1.481       .  S
N1221      N1222   1.319       .  A
N1221      N1227   1.318       .  A
N1221     Mn1229   2.210       .  S
N1223      N1224   1.328       .  A
N1223      N1225   1.321       .  A
N1223     Mn1230   2.233       .  S
N1224      C1233   1.357       .  A
N1225      N1226   1.321       .  A
N1225     Mn1229   2.210       .  S
N1226      C1233   1.351       .  A
N1227     Mn1230   2.194       .  S
N1228      C1232   1.347       .  A
Mn1229    Cl1231   2.539       .  S
Mn1230    Cl1231   2.557       .  S
C1232      C1393   1.459       .  S
C1233      C1385   1.494   1_565  S
N1234      N1235   1.319       .  A
N1234      N1240   1.316       .  A
N1234     Mn1263   2.192       .  S
N1235      C1242   1.348       .  A
N1236      N1238   1.316       .  A
N1236      N1237   1.322       .  A
N1236     Mn1252   2.213       .  S
N1237      C1243   1.354       .  A
N1238      N1239   1.325       .  A
N1238     Mn1263   2.223       .  S
N1239      C1243   1.357       .  A
N1240      N1241   1.321       .  A
N1240     Mn1252   2.210       .  S
N1241      C1242   1.356       .  A
C1242      C1454   1.470       .  S
C1243      C1382   1.490   1_556  S
N1244      N1250   1.317       .  A
N1244      N1245   1.320       .  A
N1244     Mn1274   2.217       .  S
N1245      C1253   1.355       .  A
N1246      N1247   1.324       .  A
N1246      N1248   1.319       .  A
N1246     Mn1252   2.221       .  S
N1247      C1254   1.353       .  A
N1248      N1249   1.323       .  A
N1248     Mn1274   2.217       .  S
N1249      C1254   1.354       .  A
N1250      N1251   1.321       .  A
N1250     Mn1252   2.195       .  S
N1251      C1253   1.351       .  A
Mn1252    Cl1276   2.553       .  S
C1253      C1426   1.476       .  S
C1254      C1377   1.489       .  S
N1255      N1256   1.324       .  A
N1255      N1261   1.316       .  A
N1255     Mn1263   2.211       .  S
N1256      C1264   1.355       .  A
N1257      N1259   1.314       .  A
N1257      N1258   1.320       .  A
N1257     Mn1275   2.182       .  S
N1258      C1265   1.350       .  A
N1259      N1260   1.319       .  A
N1259     Mn1263   2.210       .  S
N1260      C1265   1.356       .  A
N1261      N1262   1.321       .  A
N1261     Mn1275   2.208       .  S
N1262      C1264   1.354       .  A
Mn1263    Cl1276   2.552       .  S
C1264      C1386   1.484   1_556  S
C1265      C1429   1.474       .  S
N1266      N1267   1.325       .  A
N1266      N1272   1.319       .  A
N1266     Mn1274   2.227       .  S
N1267      C1277   1.357       .  A
N1268      N1270   1.317       .  A
N1268     Mn1275   2.174       .  S
N1269      C1278   1.354       .  A
N1270      N1271   1.318       .  A
N1270     Mn1274   2.199       .  S
N1272      N1273   1.319       .  A
N1272     Mn1275   2.196       .  S
N1273      C1277   1.347       .  A
Mn1274    Cl1276   2.545       .  S
Mn1275    Cl1276   2.546       .  S
C1277      C1390   1.478       .  S
C1278      C1449   1.468       .  S
N1279      N1280   1.314       .  A
N1279      N1285   1.311       .  A
N1279     Mn1308   2.181       .  S
N1280      C2751   1.352   1_455  A
N1281      N1283   1.316       .  A
N1281      N1282   1.328       .  A
N1281     Mn1297   2.227       .  S
N1282      C1288   1.359       .  A
N1283      N1284   1.316       .  A
N1283     Mn1308   2.175       .  S
N1284      C1288   1.343       .  A
N1285      N2750   1.318   1_455  A
N1285     Mn1297   2.165       .  S
N1286      N2749   1.319       .  A
N1286      C1287   1.350       .  A
C1287      N2744   1.350       .  A
C1287      C1369   1.459       .  S
C1288      C1410   1.473       .  S
N1289      N1295   1.319       .  A
N1289      N1290   1.319       .  A
N1289     Mn1319   2.214       .  S
N1290      C1298   1.351       .  A
N1291      N1292   1.315       .  A
N1291      N1293   1.318       .  A
N1291     Mn1297   2.186       .  S
N1292      C1299   1.343       .  A
N1293      N1294   1.328       .  A
N1293     Mn1319   2.234       .  S
N1294      C1299   1.360       .  A
N1295      N1296   1.318       .  A
N1295     Mn1297   2.189       .  S
N1296      C1298   1.351       .  A
Mn1297    Cl1321   2.554       .  S
C1298      C1397   1.465       .  S
C1299      C1414   1.472       .  S
N1300      N1301   1.316       .  A
N1300      N1306   1.316       .  A
N1300     Mn1308   2.180       .  S
N1301      C1309   1.346       .  A
N1302      N1304   1.312       .  A
N1302      N1303   1.318       .  A
N1302     Mn1320   2.186       .  S
N1303      C1310   1.353       .  A
N1304      N1305   1.316       .  A
N1304     Mn1308   2.171       .  S
N1305      C1310   1.347       .  A
N1306      N1307   1.323       .  A
N1306     Mn1320   2.212       .  S
N1307      C1309   1.356       .  A
Mn1308    Cl1321   2.522       .  S
C1309      C1381   1.466       .  S
C1310      C1394   1.458       .  S
N1311      N1312   1.329       .  A
N1311      N1317   1.317       .  A
N1311     Mn1319   2.240       .  S
N1312      C1322   1.361       .  A
N1313      N1314   1.322       .  A
N1313      N1315   1.317       .  A
N1313     Mn1320   2.205       .  S
N1314      C1323   1.353       .  A
N1315      N1316   1.321       .  A
N1315     Mn1319   2.218       .  S
N1316      C1323   1.355       .  A
N1317      N1318   1.318       .  A
N1317     Mn1320   2.198       .  S
N1318      C1322   1.347       .  A
Mn1319    Cl1321   2.545       .  S
Mn1320    Cl1321   2.552       .  S
C1322      C1378   1.483       .  S
C1323      C1373   1.480       .  S
N1324      N1325   1.315       .  A
N1324      N1330   1.313       .  A
N1324     Mn1353   2.164       .  S
N1325      C1332   1.343       .  A
N1326      N1328   1.320       .  A
N1326      N1327   1.319       .  A
N1326     Mn1342   2.194       .  S
N1327      C1333   1.346       .  A
N1328      N1329   1.324       .  A
N1328     Mn1353   2.219       .  S
N1329      C1333   1.354       .  A
N1330      N1331   1.325       .  A
N1330     Mn1342   2.220       .  S
N1331      C1332   1.360       .  A
C1332      C1406   1.469       .  S
C1333      C1458   1.473       .  S
N1334      N1340   1.319       .  A
N1334      N1335   1.318       .  A
N1334     Mn1364   2.203       .  S
N1335      C1343   1.349       .  A
N1336      N1337   1.316       .  A
N1336      N1338   1.317       .  A
N1336     Mn1342   2.168       .  S
N1337      C1344   1.342       .  A
N1338      N1339   1.327       .  A
N1338     Mn1364   2.248       .  S
N1339      C1344   1.364       .  A
N1340      N1341   1.325       .  A
N1340     Mn1342   2.225       .  S
N1341      C1343   1.357       .  A
Mn1342    Cl1366   2.540       .  S
C1343      C1374   1.476       .  S
C1344      C1461   1.478       .  S
N1345      N1346   1.319       .  A
N1345      N1351   1.319       .  A
N1345     Mn1353   2.198       .  S
N1346      C1354   1.352       .  A
N1347      N1349   1.313       .  A
N1347     Mn1365   2.178       .  S
N1348      C1355   1.351       .  A
N1349      N1350   1.316       .  A
N1349     Mn1353   2.182       .  S
N1351      N1352   1.322       .  A
N1351     Mn1365   2.196       .  S
N1352      C1354   1.348       .  A
Mn1353    Cl1366   2.538       .  S
C1354      C1417   1.477   1_565  S
C1355      C1370   1.453       .  S
N1356      N1357   1.325       .  A
N1356      N1362   1.315       .  A
N1356     Mn1364   2.218       .  S
N1357      C1367   1.358       .  A
N1358      N1359   1.319       .  A
N1358      N1360   1.318       .  A
N1358     Mn1365   2.189       .  S
N1359      C1368   1.348       .  A
N1360      N1361   1.326       .  A
N1360     Mn1364   2.243       .  S
N1361      C1368   1.360       .  A
N1362      N1363   1.316       .  A
N1362     Mn1365   2.182       .  S
N1363      C1367   1.345       .  A
Mn1364    Cl1366   2.559       .  S
Mn1365    Cl1366   2.535       .  S
C1367      C1422   1.469   1_565  S
C1368      C1401   1.481       .  S
C1369      C1370   1.336       .  D
C1369      H1371   1.087       .  S
C1370      H1372   1.087       .  S
C1373      C1374   1.342       .  D
C1373      H1375   1.086       .  S
C1374      H1376   1.087       .  S
C1377      C1378   1.344       .  D
C1377      H1379   1.086       .  S
C1378      H1380   1.086       .  S
C1381      H1383   1.085       .  S
C1382      H1384   1.085       .  S
C1385      H1387   1.086       .  S
C1386      H1388   1.086       .  S
C1389      H1391   1.086       .  S
C1390      H1392   1.086       .  S
C1393      C1394   1.335       .  D
C1393      H1395   1.086       .  S
C1394      H1396   1.086       .  S
C1397      C1398   1.341       .  D
C1397      H1399   1.086       .  S
C1398      H1400   1.085       .  S
C1401      C1402   1.339       .  D
C1401      H1403   1.086       .  S
C1402      H1404   1.086       .  S
C1405      C1406   1.332       .  D
C1405      H1407   1.087       .  S
C1406      H1408   1.087       .  S
C1409      C2508   1.346       .  D
C1409      H2875   1.086       .  S
C1410      C2507   1.348   1_455  D
C1410      H1412   1.086       .  S
H1411      C2873   1.087       .  S
C1413      C2878   1.341       .  D
C1413      H1415   1.086       .  S
C1414      C2877   1.340       .  D
C1414      H1416   1.086   1_455  S
C1417      H1419   1.086       .  S
C1418      H1420   1.087       .  S
C1421      H1423   1.086       .  S
C1422      H1424   1.086       .  S
C1425      C1426   1.340       .  D
C1425      H1427   1.086       .  S
C1426      H1428   1.086       .  S
C1429      C1430   1.337       .  D
C1429      H1431   1.086       .  S
C1430      H1432   1.087       .  S
C1433      C2532   1.346   1_455  D
C1433      H1435   1.086       .  S
C1434      C2531   1.337   1_556  D
C1434      H1436   1.088       .  S
C1437      C2902   1.337       .  D
C1437      H1439   1.086       .  S
C1438      C2901   1.336   1_655  D
C1438      H1440   1.086       .  S
C1441      C1442   1.334       .  D
C1441      H1443   1.086       .  S
C1442      H1444   1.087       .  S
C1445      C1446   1.344       .  D
C1445      H1447   1.086       .  S
C1446      H1448   1.086       .  S
C1449      C1450   1.341       .  D
C1449      H1451   1.086       .  S
C1450      H1452   1.086       .  S
C1453      C1454   1.335       .  D
C1453      H1455   1.087       .  S
C1454      H1456   1.086       .  S
C1457      H1459   1.087       .  S
C1458      H1460   1.087       .  S
C1461      C1462   1.331       .  D
C1461      H1463   1.086       .  S
C1462      H1464   1.087       .  S
N1465      N1466   1.321       .  A
N1465      N1471   1.312       .  A
N1465     Mn1494   2.191       .  S
N1466      C1473   1.351       .  A
N1467      N1469   1.317       .  A
N1467      N1468   1.319       .  A
N1467     Mn1483   2.191       .  S
N1468      C1474   1.347       .  A
N1469      N1470   1.323       .  A
N1469     Mn1494   2.214       .  S
N1470      C1474   1.354       .  A
N1471      N1472   1.315       .  A
N1471     Mn1483   2.173       .  S
N1472      C1473   1.350       .  A
C1473      C1808   1.463       .  S
C1474      C1823   1.471       .  S
N1475      N1481   1.318       .  A
N1475      N1476   1.325       .  A
N1475     Mn1505   2.236       .  S
N1476      C1484   1.358       .  A
N1477      N1478   1.315       .  A
N1477      N1479   1.317       .  A
N1477     Mn1483   2.169       .  S
N1478      C1485   1.341       .  A
N1479      N1480   1.331       .  A
N1479     Mn1505   2.261       .  S
N1480      C1485   1.366       .  A
N1481      N1482   1.316       .  A
N1481     Mn1483   2.181       .  S
N1482      C1484   1.346       .  A
Mn1483    Cl1507   2.533       .  S
C1484      C1819   1.468       .  S
C1485      C1828   1.486       .  S
N1486      N1487   1.320       .  A
N1486      N1492   1.320       .  A
N1486     Mn1494   2.211       .  S
N1487      C1495   1.353       .  A
N1488      N1490   1.314       .  A
N1488     Mn1506   2.199       .  S
N1489      C1496   1.357       .  A
N1490      N1491   1.316       .  A
N1490     Mn1494   2.173       .  S
N1492      N1493   1.321       .  A
N1492     Mn1506   2.200       .  S
N1493      C1495   1.349       .  A
Mn1494    Cl1507   2.549       .  S
C1495      C1800   1.477       .  S
C1496      C1816   1.466       .  S
N1497      N1498   1.330       .  A
N1497      N1503   1.318       .  A
N1497     Mn1505   2.260       .  S
N1498      C1508   1.365       .  A
N1499      N1500   1.322       .  A
N1499      N1501   1.319       .  A
N1499     Mn1506   2.208       .  S
N1500      C1509   1.353       .  A
N1501      N1502   1.326       .  A
N1501     Mn1505   2.242       .  S
N1502      C1509   1.357       .  A
N1503      N1504   1.317       .  A
N1503     Mn1506   2.183       .  S
N1504      C1508   1.344       .  A
Mn1505    Cl1507   2.562       .  S
Mn1506    Cl1507   2.542       .  S
C1508      C1803   1.486   1_655  S
C1509      C1812   1.487       .  S
N1510      N1511   1.319       .  A
N1510      N1516   1.318       .  A
N1510     Mn1539   2.196       .  S
N1511      C1518   1.349       .  A
N1512      N1514   1.316       .  A
N1512     Mn1528   2.237       .  S
N1513      C1519   1.361       .  A
N1514      N1515   1.313       .  A
N1514     Mn1539   2.162       .  S
N1516      N1517   1.322       .  A
N1516     Mn1528   2.206       .  S
N1517      C1518   1.352       .  A
C1518      C1779   1.468   1_655  S
C1519      C1791   1.468       .  S
N1520      N1526   1.318       .  A
N1520      N1521   1.327       .  A
N1520     Mn1550   2.241       .  S
N1521      C1529   1.359       .  A
N1522      N1523   1.322       .  A
N1522      N1524   1.320       .  A
N1522     Mn1528   2.228       .  S
N1523      C1530   1.354       .  A
N1524      N1525   1.325       .  A
N1524     Mn1550   2.228       .  S
N1525      C1530   1.356       .  A
N1526      N1527   1.319       .  A
N1526     Mn1528   2.197       .  S
N1527      C1529   1.350       .  A
Mn1528    Cl1552   2.542       .  S
C1529      C1775   1.488       .  S
C1530      C1811   1.484       .  S
N1531      N1532   1.318       .  A
N1531      N1537   1.311       .  A
N1531     Mn1539   2.186       .  S
N1532      C2272   1.352   1_545  A
N1533      N1535   1.316       .  A
N1533      N1534   1.319       .  A
N1533     Mn1551   2.182       .  S
N1534      C1541   1.347       .  A
N1535      N1536   1.320       .  A
N1535     Mn1539   2.199       .  S
N1536      C1541   1.353       .  A
N1537      N2270   1.317   1_545  A
N1537     Mn1551   2.163       .  S
N1538      N2269   1.316       .  A
N1538      C1540   1.346       .  A
Mn1539    Cl1552   2.543       .  S
C1540      N2264   1.353       .  A
C1540      C1807   1.457       .  S
C1541      C1787   1.470       .  S
N1542      N1543   1.322       .  A
N1542      N1548   1.315       .  A
N1542     Mn1550   2.227       .  S
N1543      C1553   1.359       .  A
N1544      N1545   1.313       .  A
N1544      N1546   1.317       .  A
N1544     Mn1551   2.171       .  S
N1545      C1554   1.341       .  A
N1546      N1547   1.328       .  A
N1546     Mn1550   2.236       .  S
N1547      C1554   1.361       .  A
N1548      N1549   1.315       .  A
N1548     Mn1551   2.154       .  S
N1549      C1553   1.342       .  A
Mn1550    Cl1552   2.558       .  S
Mn1551    Cl1552   2.535       .  S
C1553      C1796   1.466       .  S
C1554      C1784   1.465       .  S
N1555      N1556   1.329       .  A
N1555      N1561   1.316       .  A
N1555     Mn1584   2.248       .  S
N1556      C1563   1.364       .  A
N1557      N1559   1.317       .  A
N1557      N1558   1.318       .  A
N1557     Mn1573   2.191       .  S
N1558      C1564   1.349       .  A
N1559      N1560   1.324       .  A
N1559     Mn1584   2.229       .  S
N1560      C1564   1.357       .  A
N1561      N1562   1.314       .  A
N1561     Mn1573   2.159       .  S
N1562      C1563   1.341       .  A
C1563      C1804   1.477       .  S
C1564      C1764   1.476       .  S
N1565      N1571   1.318       .  A
N1565      N1566   1.323       .  A
N1565     Mn1595   2.214       .  S
N1566      C1574   1.355       .  A
N1567      N1569   1.311       .  A
N1567     Mn1573   2.193       .  S
N1568      C1575   1.356       .  A
N1569      N1570   1.316       .  A
N1569     Mn1595   2.172       .  S
N1571      N1572   1.318       .  A
N1571     Mn1573   2.179       .  S
N1572      C1574   1.344       .  A
Mn1573    Cl1597   2.539       .  S
C1574      C1799   1.469       .  S
C1575      C1771   1.469       .  S
N1576      N1577   1.321       .  A
N1576      N1582   1.320       .  A
N1576     Mn1584   2.223       .  S
N1577      C1585   1.352       .  A
N1578      N1580   1.318       .  A
N1578      N1579   1.321       .  A
N1578     Mn1596   2.214       .  S
N1579      C1586   1.350       .  A
N1580      N1581   1.329       .  A
N1580     Mn1584   2.238       .  S
N1581      C1586   1.360       .  A
N1582      N1583   1.327       .  A
N1582     Mn1596   2.235       .  S
N1583      C1585   1.359       .  A
Mn1584    Cl1597   2.560       .  S
C1585      C1768   1.487       .  S
C1586      C1755   1.488       .  S
N1587      N1588   1.315       .  A
N1587      N1593   1.315       .  A
N1587     Mn1595   2.180       .  S
N1588      C2330   1.345       .  A
N1589      N1590   1.327       .  A
N1589      N1591   1.321       .  A
N1589     Mn1596   2.233       .  S
N1590      C1599   1.356       .  A
N1591      N1592   1.317       .  A
N1591     Mn1595   2.188       .  S
N1592      C1599   1.345       .  A
N1593      N2326   1.322       .  A
N1593     Mn1596   2.199       .  S
N1594      N2325   1.319   1_545  A
N1594      C1598   1.349       .  A
Mn1595    Cl1597   2.531       .  S
Mn1596    Cl1597   2.556       .  S
C1598      N2320   1.353   1_545  A
C1598      C1759   1.465       .  S
C1599      C1751   1.474       .  S
N1600      N1601   1.320       .  A
N1600      N1606   1.316       .  A
N1600     Mn1629   2.208       .  S
N1601      C1608   1.350       .  A
N1602      N1604   1.314       .  A
N1602      N1603   1.313       .  A
N1602     Mn1618   2.169       .  S
N1603      C1609   1.341       .  A
N1604      N1605   1.325       .  A
N1604     Mn1629   2.205       .  S
N1605      C1609   1.358       .  A
N1606      N1607   1.321       .  A
N1606     Mn1618   2.200       .  S
N1607      C1608   1.355       .  A
C1608      C1820   1.474       .  S
C1609      C1748   1.458       .  S
N1610      N1616   1.315       .  A
N1610      N1611   1.323       .  A
N1610     Mn1640   2.227       .  S
N1611      C1619   1.360       .  A
N1612      N1613   1.322       .  A
N1612      N1614   1.318       .  A
N1612     Mn1618   2.199       .  S
N1613      C1620   1.351       .  A
N1614      N1615   1.320       .  A
N1614     Mn1640   2.210       .  S
N1615      C1620   1.352       .  A
N1616      N1617   1.316       .  A
N1616     Mn1618   2.167       .  S
N1617      C1619   1.344       .  A
Mn1618    Cl1642   2.538       .  S
C1619      C1792   1.470       .  S
C1620      C1743   1.478       .  S
N1621      N1622   1.330       .  A
N1621      N1627   1.317       .  A
N1621     Mn1629   2.239       .  S
N1622      C1630   1.362       .  A
N1623      N1625   1.315       .  A
N1623      N1624   1.325       .  A
N1623     Mn1641   2.224       .  S
N1624      C1631   1.361       .  A
N1625      N1626   1.312       .  A
N1625     Mn1629   2.157       .  S
N1626      C1631   1.339       .  A
N1627      N1628   1.318       .  A
N1627     Mn1641   2.203       .  S
N1628      C1630   1.347       .  A
Mn1629    Cl1642   2.559       .  S
C1630      C1752   1.483       .  S
C1631      C1795   1.462       .  S
N1632      N1633   1.323       .  A
N1632      N1638   1.322       .  A
N1632     Mn1640   2.220       .  S
N1633      C1643   1.352       .  A
N1634      N2367   1.316   1_545  A
N1634      N1636   1.316       .  A
N1634     Mn1641   2.179       .  S
N1635      N2366   1.320       .  A
N1635      C1644   1.350       .  A
N1636      N1637   1.321       .  A
N1636     Mn1640   2.206       .  S
N1637      C2376   1.355   1_545  A
N1638      N1639   1.325       .  A
N1638     Mn1641   2.220       .  S
N1639      C1643   1.353       .  A
Mn1640    Cl1642   2.543       .  S
Mn1641    Cl1642   2.540       .  S
C1643      C1756   1.488       .  S
C1644      N2369   1.353       .  A
C1644      C1815   1.473       .  S
N1645      N1646   1.312       .  A
N1645      N1651   1.314       .  A
N1645     Mn1674   2.172       .  S
N1647      N1649   1.318       .  A
N1647      N1648   1.326       .  A
N1647     Mn1663   2.212       .  S
N1648      C1654   1.354       .  A
N1649      N1650   1.315       .  A
N1649     Mn1674   2.187       .  S
N1650      C1654   1.348       .  A
N1651     Mn1663   2.202       .  S
N1652      C1653   1.351       .  A
C1653      C1735   1.461       .  S
C1654      C1776   1.479       .  S
N1655      N1661   1.318       .  A
N1655      N1656   1.321       .  A
N1655     Mn1685   2.211       .  S
N1656      C1664   1.351       .  A
N1657      N1658   1.317       .  A
N1657      N1659   1.317       .  A
N1657     Mn1663   2.195       .  S
N1658      C1665   1.350       .  A
N1659      N1660   1.325       .  A
N1659     Mn1685   2.217       .  S
N1660      C1665   1.356       .  A
N1661      N1662   1.322       .  A
N1661     Mn1663   2.213       .  S
N1662      C1664   1.356       .  A
Mn1663    Cl1687   2.557       .  S
C1664      C1763   1.478       .  S
C1665      C1780   1.479       .  S
N1666      N1667   1.320       .  A
N1666      N1672   1.316       .  A
N1666     Mn1674   2.199       .  S
N1667      C1675   1.350       .  A
N1668      N1670   1.312       .  A
N1668      N1669   1.319       .  A
N1668     Mn1686   2.184       .  S
N1669      C1676   1.353       .  A
N1670      N1671   1.318       .  A
N1670     Mn1674   2.186       .  S
N1671      C1676   1.349       .  A
N1672      N1673   1.322       .  A
N1672     Mn1686   2.205       .  S
N1673      C1675   1.353       .  A
Mn1674    Cl1687   2.523       .  S
C1675      C1747   1.474       .  S
C1676      C1760   1.465       .  S
N1677      N1678   1.325       .  A
N1677      N1683   1.316       .  A
N1677     Mn1685   2.224       .  S
N1678      C1688   1.358       .  A
N1679      N1680   1.321       .  A
N1679      N1681   1.317       .  A
N1679     Mn1686   2.193       .  S
N1680      C1689   1.351       .  A
N1681      N1682   1.317       .  A
N1681     Mn1685   2.202       .  S
N1682      C1689   1.352       .  A
N1683      N1684   1.317       .  A
N1683     Mn1686   2.188       .  S
N1684      C1688   1.346       .  A
Mn1685    Cl1687   2.541       .  S
Mn1686    Cl1687   2.555       .  S
C1688      C1744   1.472       .  S
C1689      C1739   1.469       .  S
N1690      N1691   1.320       .  A
N1690      N1696   1.313       .  A
N1690     Mn1719   2.204       .  S
N1691      C1698   1.355       .  A
N1692      N1694   1.320       .  A
N1692      N1693   1.322       .  A
N1692     Mn1708   2.202       .  S
N1693      C1699   1.350       .  A
N1694      N1695   1.317       .  A
N1694     Mn1719   2.197       .  S
N1695      C1699   1.347       .  A
N1696      N1697   1.320       .  A
N1696     Mn1708   2.183       .  S
N1697      C1698   1.350       .  A
C1698      C1772   1.472       .  S
C1699      C1824   1.462       .  S
N1700      N1706   1.316       .  A
N1700      N1701   1.316       .  A
N1700     Mn1730   2.190       .  S
N1701      C1709   1.347       .  A
N1702      N1703   1.316       .  A
N1702      N1704   1.316       .  A
N1702     Mn1708   2.173       .  S
N1703      C1710   1.342       .  A
N1704      N1705   1.331       .  A
N1704     Mn1730   2.261       .  S
N1705      C1710   1.366       .  A
N1706      N1707   1.322       .  A
N1706     Mn1708   2.200       .  S
N1707      C1709   1.355       .  A
Mn1708    Cl1732   2.550       .  S
C1709      C1740   1.464       .  S
C1710      C1827   1.486       .  S
N1711      N1712   1.323       .  A
N1711      N1717   1.318       .  A
N1711     Mn1719   2.218       .  S
N1712      C1720   1.355       .  A
N1713      N1715   1.314       .  A
N1713      N2446   1.321       .  A
N1713     Mn1731   2.201       .  S
N1714      N2445   1.320   1_545  A
N1714      C1721   1.352       .  A
N1715      N1716   1.315       .  A
N1715     Mn1719   2.178       .  S
N1716      C2453   1.347       .  A
N1717      N1718   1.323       .  A
N1717     Mn1731   2.200       .  S
N1718      C1720   1.350       .  A
Mn1719    Cl1732   2.529       .  S
C1720      C1783   1.485       .  S
C1721      N2448   1.345   1_545  A
C1721      C1736   1.451       .  S
N1722      N1723   1.323       .  A
N1722      N1728   1.315       .  A
N1722     Mn1730   2.197       .  S
N1723      C1733   1.354       .  A
N1724      N1725   1.323       .  A
N1724      N1726   1.319       .  A
N1724     Mn1731   2.216       .  S
N1725      C1734   1.354       .  A
N1726      N1727   1.325       .  A
N1726     Mn1730   2.238       .  S
N1727      C1734   1.357       .  A
N1728      N1729   1.314       .  A
N1728     Mn1731   2.176       .  S
N1729      C1733   1.346       .  A
Mn1730    Cl1732   2.548       .  S
Mn1731    Cl1732   2.544       .  S
C1733      C1788   1.466       .  S
C1734      C1767   1.489       .  S
C1735      C1736   1.336       .  D
C1735      H1737   1.086       .  S
C1736      H1738   1.087       .  S
C1739      C1740   1.338       .  D
C1739      H1741   1.086       .  S
C1740      H1742   1.087       .  S
C1743      C1744   1.340       .  D
C1743      H1745   1.086       .  S
C1744      H1746   1.086       .  S
C1747      C2114   1.346       .  D
C1747      H1749   1.085   1_554  S
C1748      C2113   1.335       .  D
C1748      H1750   1.087       .  S
C1751      C2850   1.348       .  D
C1751      H1753   1.085   1_554  S
C1752      C2849   1.349       .  D
C1752      H1754   1.086   1_545  S
C1755      C2488   1.347       .  D
C1755      H1757   1.086       .  S
C1756      C2487   1.345       .  D
C1756      H1758   1.086   1_545  S
C1759      C1760   1.338       .  D
C1759      H1761   1.086       .  S
C1760      H1762   1.086       .  S
C1763      C1764   1.341       .  D
C1763      H1765   1.085       .  S
C1764      H1766   1.086       .  S
C1767      C1768   1.346       .  D
C1767      H1769   1.085       .  S
C1768      H1770   1.086       .  S
C1771      C1772   1.339       .  D
C1771      H1773   1.086       .  S
C1772      H1774   1.086       .  S
C1776      H1778   1.086       .  S
C1779      H1781   1.085       .  S
C1780      H1782   1.085       .  S
C1783      C2882   1.341   1_554  D
C1783      H1785   1.086       .  S
C1784      C2881   1.338       .  D
C1784      H1786   1.086   1_545  S
C1787      C2520   1.335       .  D
C1787      H1789   1.087   1_545  S
C1788      C2519   1.343       .  D
C1788      H1790   1.087       .  S
C1791      C1792   1.332       .  D
C1791      H1793   1.086       .  S
C1792      H1794   1.086       .  S
C1795      C1796   1.329       .  D
C1795      H1797   1.086       .  S
C1796      H1798   1.086       .  S
C1799      H1801   1.087       .  S
C1800      H1802   1.087   1_655  S
C1803      H1805   1.086       .  S
C1804      H1806   1.086       .  S
C1807      C1808   1.336       .  D
C1807      H1809   1.087       .  S
C1808      H1810   1.086       .  S
C1811      C1812   1.348       .  D
C1811      H1813   1.086       .  S
C1812      H1814   1.086       .  S
C1815      C1816   1.337       .  D
C1815      H1817   1.086       .  S
C1816      H1818   1.086       .  S
C1819      C1820   1.337       .  D
C1819      H1821   1.086       .  S
C1820      H1822   1.086       .  S
C1823      C2190   1.336       .  D
C1823      H1825   1.087       .  S
C1824      C2189   1.335   1_554  D
C1824      H1826   1.087       .  S
C1827      C1828   1.335       .  D
C1827      H1829   1.086       .  S
C1828      H1830   1.086       .  S
N1831      N1832   1.316       .  A
N1831      N1837   1.311       .  A
N1831     Mn1860   2.169       .  S
N1832      C1839   1.346       .  A
N1833      N1835   1.316       .  A
N1833      N1834   1.320       .  A
N1833     Mn1849   2.190       .  S
N1834      C1840   1.349       .  A
N1835      N1836   1.319       .  A
N1835     Mn1860   2.207       .  S
N1836      C1840   1.356       .  A
N1837      N1838   1.319       .  A
N1837     Mn1849   2.180       .  S
N1838      C1839   1.353       .  A
C1839      C2174   1.455       .  S
C1840      C2189   1.474       .  S
N1841      N1847   1.315       .  A
N1841      N1842   1.322       .  A
N1841     Mn1871   2.214       .  S
N1842      C1850   1.356       .  A
N1843      N1844   1.317       .  A
N1843      N1845   1.315       .  A
N1843     Mn1849   2.182       .  S
N1844      C1851   1.350       .  A
N1845      N1846   1.322       .  A
N1845     Mn1871   2.208       .  S
N1846      C1851   1.354       .  A
N1847      N1848   1.317       .  A
N1847     Mn1849   2.174       .  S
N1848      C1850   1.346       .  A
Mn1849    Cl1873   2.559       .  S
C1850      C2185   1.466       .  S
C1851      C2194   1.470       .  S
N1852      N1853   1.316       .  A
N1852      N1858   1.320       .  A
N1852     Mn1860   2.192       .  S
N1853      C1861   1.345       .  A
N1854      N1856   1.314       .  A
N1854     Mn1872   2.198       .  S
N1855      C1862   1.351       .  A
N1856      N1857   1.314       .  A
N1856     Mn1860   2.172       .  S
N1858      N1859   1.329       .  A
N1858     Mn1872   2.229       .  S
N1859      C1861   1.357       .  A
Mn1860    Cl1873   2.513       .  S
C1861      C2166   1.477       .  S
C1862      C2182   1.450       .  S
N1863      N1864   1.320       .  A
N1863      N1869   1.316       .  A
N1863     Mn1871   2.206       .  S
N1864      C1874   1.352       .  A
N1865      N1866   1.320       .  A
N1865      N1867   1.320       .  A
N1865     Mn1872   2.216       .  S
N1866      C1875   1.354       .  A
N1867      N1868   1.319       .  A
N1867     Mn1871   2.202       .  S
N1868      C1875   1.349       .  A
N1869      N1870   1.324       .  A
N1869     Mn1872   2.210       .  S
N1870      C1874   1.354       .  A
Mn1871    Cl1873   2.528       .  S
Mn1872    Cl1873   2.564       .  S
C1874      C2169   1.477       .  S
C1875      C2178   1.467       .  S
N1876      N1877   1.322       .  A
N1876      N1882   1.318       .  A
N1876     Mn1905   2.210       .  S
N1877      C1884   1.354       .  A
N1878      N1880   1.312       .  A
N1878     Mn1894   2.190       .  S
N1879      C1885   1.353       .  A
N1880      N1881   1.314   1_655  A
N1880     Mn1905   2.174       .  S
N1882      N1883   1.321       .  A
N1882     Mn1894   2.198       .  S
N1883      C1884   1.349       .  A
C1884      C2145   1.476   1_655  S
C1885      C2157   1.468       .  S
N1886      N1892   1.316       .  A
N1886      N1887   1.325       .  A
N1886     Mn1916   2.223       .  S
N1887      C1895   1.357       .  A
N1888      N1889   1.317       .  A
N1888      N1890   1.318       .  A
N1888     Mn1894   2.187       .  S
N1889      C1896   1.348       .  A
N1890      N1891   1.322       .  A
N1890     Mn1916   2.216       .  S
N1891      C1896   1.354       .  A
N1892      N1893   1.314       .  A
N1892     Mn1894   2.173       .  S
N1893      C1895   1.344       .  A
Mn1894    Cl1918   2.542       .  S
C1895      C2141   1.459       .  S
C1896      C2177   1.466       .  S
N1897      N1898   1.318       .  A
N1897      N1903   1.314       .  A
N1897     Mn1905   2.182       .  S
N1898      C2638   1.347   1_545  A
N1899      N1901   1.318       .  A
N1899      N1900   1.320       .  A
N1899     Mn1917   2.192       .  S
N1900      C1907   1.348       .  A
N1901      N1902   1.320       .  A
N1901     Mn1905   2.203       .  S
N1902      C1907   1.353       .  A
N1903      N2636   1.318       .  A
N1903     Mn1917   2.190       .  S
N1904      N2635   1.318       .  A
N1904      C1906   1.348       .  A
Mn1905    Cl1918   2.540       .  S
C1906      N2630   1.351       .  A
C1906      C2173   1.459       .  S
C1907      C2153   1.473       .  S
N1908      N1909   1.320       .  A
N1908      N1914   1.318       .  A
N1908     Mn1916   2.219       .  S
N1909      C1919   1.356       .  A
N1910      N1911   1.317       .  A
N1910      N1912   1.316       .  A
N1910     Mn1917   2.188       .  S
N1911      C1920   1.349       .  A
N1912      N1913   1.326       .  A
N1912     Mn1916   2.222       .  S
N1913      C1920   1.357       .  A
N1914      N1915   1.320       .  A
N1914     Mn1917   2.191       .  S
N1915      C1919   1.349       .  A
Mn1916    Cl1918   2.551       .  S
Mn1917    Cl1918   2.541       .  S
C1919      C2162   1.474       .  S
C1920      C2150   1.481       .  S
N1921      N1922   1.332       .  A
N1921      N1927   1.316       .  A
N1921     Mn1950   2.251       .  S
N1922      C1929   1.366       .  A
N1923      N1925   1.316       .  A
N1923      N1924   1.320       .  A
N1923     Mn1939   2.182       .  S
N1924      C1930   1.351       .  A
N1925      N1926   1.318       .  A
N1925     Mn1950   2.208       .  S
N1926      C1930   1.353       .  A
N1927      N1928   1.314       .  A
N1927     Mn1939   2.173       .  S
N1928      C1929   1.341       .  A
C1929      C2170   1.483       .  S
C1930      C2130   1.469       .  S
N1931      N1937   1.317       .  A
N1931      N1932   1.316       .  A
N1931     Mn1961   2.190       .  S
N1932      C1940   1.347       .  A
N1933      N1935   1.313       .  A
N1933     Mn1939   2.154       .  S
N1934      C1941   1.346       .  A
N1935      N1936   1.322       .  A
N1935     Mn1961   2.223       .  S
N1937      N1938   1.326       .  A
N1937     Mn1939   2.211       .  S
N1938      C1940   1.356       .  A
Mn1939    Cl1963   2.551       .  S
C1940      C2165   1.471       .  S
C1941      C2137   1.474       .  S
N1942      N1943   1.317       .  A
N1942      N1948   1.319       .  A
N1942     Mn1950   2.203       .  S
N1943      C1951   1.347       .  A
N1944      N1946   1.317       .  A
N1944      N1945   1.315       .  A
N1944     Mn1962   2.186       .  S
N1945      C1952   1.343       .  A
N1946      N1947   1.327       .  A
N1946     Mn1950   2.224       .  S
N1947      C1952   1.359       .  A
N1948      N1949   1.324       .  A
N1948     Mn1962   2.216       .  S
N1949      C1951   1.357       .  A
Mn1950    Cl1963   2.548       .  S
C1951      C2134   1.471       .  S
C1952      C2121   1.467       .  S
N1953      N1954   1.319       .  A
N1953      N1959   1.315       .  A
N1953     Mn1961   2.204       .  S
N1954      C2696   1.356       .  A
N1955      N1956   1.329       .  A
N1955      N1957   1.318       .  A
N1955     Mn1962   2.234       .  S
N1956      C1965   1.360       .  A
N1957      N1958   1.319       .  A
N1957     Mn1961   2.206       .  S
N1958      C1965   1.348       .  A
N1959      N2692   1.317       .  A
N1959     Mn1962   2.174       .  S
N1960      N2691   1.319   1_545  A
N1960      C1964   1.349       .  A
Mn1961    Cl1963   2.526       .  S
Mn1962    Cl1963   2.556       .  S
C1964      N2686   1.355   1_545  A
C1964      C2125   1.470       .  S
C1965      C2117   1.485       .  S
N1966      N1967   1.317       .  A
N1966      N1972   1.316       .  A
N1966     Mn1995   2.189       .  S
N1967      C1974   1.346       .  A
N1968      N1970   1.316       .  A
N1968      N1969   1.319       .  A
N1968     Mn1984   2.197       .  S
N1969      C1975   1.351       .  A
N1970      N1971   1.323       .  A
N1970     Mn1995   2.214       .  S
N1971      C1975   1.355       .  A
N1972      N1973   1.322       .  A
N1972     Mn1984   2.209       .  S
N1973      C1974   1.356       .  A
C1974      C2186   1.466       .  S
C1975      C2114   1.478   1_556  S
N1976      N1982   1.315       .  A
N1976      N1977   1.317       .  A
N1976     Mn2006   2.193       .  S
N1977      C1985   1.349       .  A
N1978      N1979   1.326       .  A
N1978      N1980   1.316       .  A
N1978     Mn1984   2.216       .  S
N1979      C1986   1.356       .  A
N1980      N1981   1.317       .  A
N1980     Mn2006   2.188       .  S
N1981      C1986   1.346       .  A
N1982      N1983   1.320       .  A
N1982     Mn1984   2.189       .  S
N1983      C1985   1.353       .  A
Mn1984    Cl2008   2.573       .  S
C1985      C2158   1.463       .  S
C1986      C2109   1.470       .  S
N1987      N1988   1.324       .  A
N1987      N1993   1.318       .  A
N1987     Mn1995   2.215       .  S
N1988      C1996   1.355       .  A
N1989      N1991   1.316       .  A
N1989      N1990   1.325       .  A
N1989     Mn2007   2.218       .  S
N1990      C1997   1.359       .  A
N1991      N1992   1.315       .  A
N1991     Mn1995   2.184       .  S
N1992      C1997   1.344       .  A
N1993      N1994   1.321       .  A
N1993     Mn2007   2.216       .  S
N1994      C1996   1.353       .  A
Mn1995    Cl2008   2.527       .  S
C1996      C2118   1.485   1_556  S
C1997      C2161   1.468       .  S
N1998      N1999   1.316       .  A
N1998      N2004   1.318       .  A
N1998     Mn2006   2.186       .  S
N1999      C2009   1.345       .  A
N2000      N2733   1.320   1_545  A
N2000      N2002   1.315       .  A
N2000     Mn2007   2.195       .  S
N2001      N2732   1.316       .  A
N2001      C2010   1.346       .  A
N2002      N2003   1.317       .  A
N2002     Mn2006   2.190       .  S
N2003      C2742   1.350   1_545  A
N2004      N2005   1.326       .  A
N2004     Mn2007   2.227       .  S
N2005      C2009   1.357       .  A
Mn2006    Cl2008   2.508       .  S
Mn2007    Cl2008   2.575       .  S
C2009      C2122   1.471       .  S
C2010      N2735   1.351       .  A
C2010      C2181   1.451       .  S
N2011      N2012   1.315       .  A
N2011      N2017   1.311       .  A
N2011     Mn2040   2.184       .  S
N2013      N2015   1.319       .  A
N2013      N2014   1.328       .  A
N2013     Mn2029   2.226       .  S
N2014      C2020   1.357       .  A
N2015      N2016   1.319       .  A
N2015     Mn2040   2.199       .  S
N2016      C2020   1.347       .  A
N2017     Mn2029   2.172       .  S
N2018      C2019   1.350       .  A
C2019      C2101   1.461       .  S
C2020      C2142   1.481       .  S
N2021      N2027   1.318       .  A
N2021      N2022   1.317       .  A
N2021     Mn2051   2.197       .  S
N2022      C2030   1.348       .  A
N2023      N2024   1.317       .  A
N2023      N2025   1.317       .  A
N2023     Mn2029   2.189       .  S
N2024      C2031   1.345       .  A
N2025      N2026   1.326       .  A
N2025     Mn2051   2.226       .  S
N2026      C2031   1.359       .  A
N2027      N2028   1.321       .  A
N2027     Mn2029   2.202       .  S
N2028      C2030   1.354       .  A
Mn2029    Cl2053   2.560       .  S
C2030      C2129   1.466       .  S
C2031      C2146   1.471       .  S
N2032      N2033   1.316       .  A
N2032      N2038   1.316       .  A
N2032     Mn2040   2.191       .  S
N2033      C2041   1.351       .  A
N2034      N2036   1.315       .  A
N2034      N2035   1.323       .  A
N2034     Mn2052   2.210       .  S
N2035      C2042   1.357       .  A
N2036      N2037   1.315       .  A
N2036     Mn2040   2.178       .  S
N2037      C2042   1.345       .  A
N2038      N2039   1.321       .  A
N2038     Mn2052   2.190       .  S
N2039      C2041   1.349       .  A
Mn2040    Cl2053   2.520       .  S
C2041      C2113   1.469       .  S
C2042      C2126   1.466       .  S
N2043      N2044   1.325       .  A
N2043      N2049   1.316       .  A
N2043     Mn2051   2.215       .  S
N2044      C2054   1.356       .  A
N2045      N2046   1.323       .  A
N2045      N2047   1.317       .  A
N2045     Mn2052   2.211       .  S
N2046      C2055   1.354       .  A
N2047      N2048   1.321       .  A
N2047     Mn2051   2.215       .  S
N2048      C2055   1.355       .  A
N2049      N2050   1.318       .  A
N2049     Mn2052   2.191       .  S
N2050      C2054   1.350       .  A
Mn2051    Cl2053   2.539       .  S
Mn2052    Cl2053   2.558       .  S
C2054      C2110   1.480       .  S
C2055      C2105   1.481       .  S
N2056      N2057   1.314       .  A
N2056      N2062   1.314       .  A
N2056     Mn2085   2.171       .  S
N2057      C2064   1.343       .  A
N2058      N2060   1.321       .  A
N2058      N2059   1.321       .  A
N2058     Mn2074   2.208       .  S
N2059      C2065   1.349       .  A
N2060      N2061   1.321       .  A
N2060     Mn2085   2.211       .  S
N2061      C2065   1.353       .  A
N2062      N2063   1.327       .  A
N2062     Mn2074   2.222       .  S
N2063      C2064   1.361       .  A
C2064      C2138   1.470       .  S
C2065      C2190   1.476       .  S
N2066      N2072   1.319       .  A
N2066      N2067   1.319       .  A
N2066     Mn2096   2.208       .  S
N2067      C2075   1.350       .  A
N2068      N2069   1.318       .  A
N2068      N2070   1.317       .  A
N2068     Mn2074   2.192       .  S
N2069      C2076   1.350       .  A
N2070      N2071   1.321       .  A
N2070     Mn2096   2.208       .  S
N2071      C2076   1.353       .  A
N2072      N2073   1.325       .  A
N2072     Mn2074   2.224       .  S
N2073      C2075   1.357       .  A
Mn2074    Cl2098   2.551       .  S
C2075      C2106   1.477       .  S
C2076      C2193   1.469       .  S
N2077      N2078   1.323       .  A
N2077      N2083   1.319       .  A
N2077     Mn2085   2.211       .  S
N2078      C2086   1.355       .  A
N2079      N2081   1.313       .  A
N2079      N2812   1.318       .  A
N2079     Mn2097   2.180       .  S
N2080      N2811   1.318   1_545  A
N2080      C2087   1.351       .  A
N2081      N2082   1.314       .  A
N2081     Mn2085   2.169       .  S
N2082      C2819   1.345       .  A
N2083      N2084   1.319       .  A
N2083     Mn2097   2.186       .  S
N2084      C2086   1.345       .  A
Mn2085    Cl2098   2.534       .  S
C2086      C2149   1.476       .  S
C2087      N2814   1.348   1_545  A
C2087      C2102   1.456       .  S
N2088      N2089   1.326       .  A
N2088      N2094   1.313       .  A
N2088     Mn2096   2.220       .  S
N2089      C2099   1.359       .  A
N2090      N2091   1.319       .  A
N2090      N2092   1.316       .  A
N2090     Mn2097   2.189       .  S
N2091      C2100   1.349       .  A
N2092      N2093   1.321       .  A
N2092     Mn2096   2.216       .  S
N2093      C2100   1.356       .  A
N2094      N2095   1.317       .  A
N2094     Mn2097   2.179       .  S
N2095      C2099   1.346       .  A
Mn2096    Cl2098   2.549       .  S
Mn2097    Cl2098   2.538       .  S
C2099      C2154   1.471       .  S
C2100      C2133   1.473       .  S
C2101      C2102   1.338       .  D
C2101      H2103   1.087       .  S
C2102      H2104   1.087       .  S
C2105      C2106   1.343       .  D
C2105      H2107   1.086       .  S
C2106      H2108   1.086       .  S
C2109      C2110   1.345       .  D
C2109      H2111   1.086       .  S
C2110      H2112   1.086       .  S
C2113      H2115   1.086       .  S
C2114      H2116   1.085       .  S
C2117      C2484   1.349       .  D
C2117      H2119   1.085       .  S
C2118      C2483   1.346   1_545  D
C2118      H2120   1.086       .  S
C2121      C2854   1.342       .  D
C2121      H2123   1.086       .  S
C2122      C2853   1.346   1_545  D
C2122      H2124   1.086       .  S
C2125      C2126   1.337       .  D
C2125      H2127   1.085       .  S
C2126      H2128   1.086       .  S
C2129      C2130   1.339       .  D
C2129      H2131   1.086       .  S
C2130      H2132   1.085       .  S
C2133      C2134   1.338       .  D
C2133      H2135   1.086       .  S
C2134      H2136   1.086       .  S
C2137      C2138   1.334       .  D
C2137      H2139   1.086       .  S
C2138      H2140   1.087       .  S
C2142      H2144   1.086       .  S
C2145      H2147   1.086       .  S
C2146      H2148   1.086       .  S
C2149      C2516   1.335       .  D
C2149      H2151   1.086       .  S
C2150      C2515   1.348   1_545  D
C2150      H2152   1.086   1_556  S
C2153      C2886   1.337       .  D
C2153      H2155   1.087   1_545  S
C2154      C2885   1.341       .  D
C2154      H2156   1.086       .  S
C2157      C2158   1.341       .  D
C2157      H2159   1.085       .  S
C2158      H2160   1.086       .  S
C2161      C2162   1.337       .  D
C2161      H2163   1.086       .  S
C2162      H2164   1.085       .  S
C2165      H2167   1.089       .  S
C2166      H2168   1.087   1_655  S
C2169      H2171   1.085       .  S
C2170      H2172   1.086       .  S
C2173      C2174   1.334       .  D
C2173      H2175   1.087       .  S
C2174      H2176   1.087       .  S
C2177      C2178   1.337       .  D
C2177      H2179   1.087       .  S
C2178      H2180   1.086       .  S
C2181      C2182   1.331       .  D
C2181      H2183   1.087       .  S
C2182      H2184   1.086       .  S
C2185      C2186   1.334       .  D
C2185      H2187   1.087       .  S
C2186      H2188   1.087       .  S
C2189      H2191   1.086       .  S
C2190      H2192   1.086       .  S
C2193      C2194   1.344       .  D
C2193      H2195   1.086       .  S
C2194      H2196   1.086       .  S
N2197      N2198   1.317       .  A
N2197      N2203   1.313       .  A
N2197     Mn2226   2.182       .  S
N2198      C2205   1.346       .  A
N2199      N2201   1.318       .  A
N2199      N2200   1.322       .  A
N2199     Mn2215   2.200       .  S
N2200      C2206   1.349       .  A
N2201      N2202   1.321       .  A
N2201     Mn2226   2.210       .  S
N2202      C2206   1.353       .  A
N2203      N2204   1.319       .  A
N2203     Mn2215   2.185       .  S
N2204      C2205   1.353       .  A
C2205      C2540   1.456       .  S
C2206      C2555   1.475       .  S
N2207      N2213   1.317       .  A
N2207      N2208   1.322       .  A
N2207     Mn2237   2.214       .  S
N2208      C2216   1.352       .  A
N2209      N2210   1.320       .  A
N2209      N2211   1.316       .  A
N2209     Mn2215   2.188       .  S
N2210      C2217   1.349       .  A
N2211      N2212   1.326       .  A
N2211     Mn2237   2.236       .  S
N2212      C2217   1.360       .  A
N2213      N2214   1.320       .  A
N2213     Mn2215   2.200       .  S
N2214      C2216   1.353       .  A
Mn2215    Cl2239   2.558       .  S
C2216      C2551   1.473       .  S
C2217      C2560   1.485       .  S
N2218      N2219   1.321       .  A
N2218      N2224   1.319       .  A
N2218     Mn2226   2.210       .  S
N2219      C2227   1.351       .  A
N2220      N2222   1.314       .  A
N2220     Mn2238   2.193       .  S
N2221      C2228   1.354       .  A
N2222      N2223   1.318       .  A
N2222     Mn2226   2.180       .  S
N2224      N2225   1.323       .  A
N2224     Mn2238   2.208       .  S
N2225      C2227   1.352       .  A
Mn2226    Cl2239   2.528       .  S
C2227      C2532   1.476       .  S
C2228      C2548   1.463       .  S
N2229      N2230   1.325       .  A
N2229      N2235   1.316       .  A
N2229     Mn2237   2.232       .  S
N2230      C2240   1.361       .  A
N2231      N2232   1.324       .  A
N2231      N2233   1.318       .  A
N2231     Mn2238   2.219       .  S
N2232      C2241   1.357       .  A
N2233      N2234   1.321       .  A
N2233     Mn2237   2.215       .  S
N2234      C2241   1.350       .  A
N2235      N2236   1.319       .  A
N2235     Mn2238   2.188       .  S
N2236      C2240   1.346       .  A
Mn2237    Cl2239   2.540       .  S
Mn2238    Cl2239   2.560       .  S
C2240      C2535   1.482   1_655  S
C2241      C2544   1.479       .  S
N2242      N2243   1.319       .  A
N2242      N2248   1.316       .  A
N2242     Mn2271   2.195       .  S
N2243      C2250   1.352       .  A
N2244      N2246   1.315       .  A
N2244     Mn2260   2.232       .  S
N2245      C2251   1.361       .  A
N2246      N2247   1.312       .  A
N2246     Mn2271   2.153       .  S
N2248      N2249   1.324       .  A
N2248     Mn2260   2.211       .  S
N2249      C2250   1.353       .  A
C2250      C2511   1.481   1_655  S
C2251      C2523   1.465       .  S
N2252      N2258   1.319       .  A
N2252      N2253   1.327       .  A
N2252     Mn2282   2.233       .  S
N2253      C2261   1.357       .  A
N2254      N2255   1.321       .  A
N2254      N2256   1.322       .  A
N2254     Mn2260   2.221       .  S
N2255      C2262   1.352       .  A
N2256      N2257   1.324       .  A
N2256     Mn2282   2.232       .  S
N2257      C2262   1.356       .  A
N2258      N2259   1.319       .  A
N2258     Mn2260   2.195       .  S
N2259      C2261   1.350       .  A
Mn2260    Cl2284   2.550       .  S
C2261      C2507   1.485       .  S
C2262      C2543   1.480       .  S
N2263      N2264   1.321       .  A
N2263      N2269   1.310       .  A
N2263     Mn2271   2.193       .  S
N2265      N2267   1.315       .  A
N2265      N2266   1.319       .  A
N2265     Mn2283   2.186       .  S
N2266      C2273   1.351       .  A
N2267      N2268   1.316       .  A
N2267     Mn2271   2.183       .  S
N2268      C2273   1.347       .  A
N2269     Mn2283   2.159       .  S
N2270      C2272   1.347       .  A
Mn2271    Cl2284   2.532       .  S
C2272      C2539   1.458       .  S
C2273      C2519   1.456       .  S
N2274      N2275   1.323       .  A
N2274      N2280   1.316       .  A
N2274     Mn2282   2.234       .  S
N2275      C2285   1.359       .  A
N2276      N2277   1.315       .  A
N2276      N2278   1.317       .  A
N2276     Mn2283   2.176       .  S
N2277      C2286   1.342       .  A
N2278      N2279   1.327       .  A
N2278     Mn2282   2.239       .  S
N2279      C2286   1.361       .  A
N2280      N2281   1.317       .  A
N2280     Mn2283   2.163       .  S
N2281      C2285   1.344       .  A
Mn2282    Cl2284   2.546       .  S
Mn2283    Cl2284   2.548       .  S
C2285      C2528   1.472       .  S
C2286      C2516   1.470       .  S
N2287      N2288   1.328       .  A
N2287      N2293   1.316       .  A
N2287     Mn2316   2.239       .  S
N2288      C2295   1.362       .  A
N2289      N2291   1.316       .  A
N2289      N2290   1.320       .  A
N2289     Mn2305   2.183       .  S
N2290      C2296   1.349       .  A
N2291      N2292   1.321       .  A
N2291     Mn2316   2.221       .  S
N2292      C2296   1.356       .  A
N2293      N2294   1.315       .  A
N2293     Mn2305   2.173       .  S
N2294      C2295   1.343       .  A
C2295      C2536   1.475       .  S
C2296      C2496   1.474       .  S
N2297      N2303   1.315       .  A
N2297      N2298   1.319       .  A
N2297     Mn2327   2.206       .  S
N2298      C2306   1.355       .  A
N2299      N2301   1.312       .  A
N2299     Mn2305   2.190       .  S
N2300      C2307   1.344       .  A
N2301      N2302   1.317       .  A
N2301     Mn2327   2.181       .  S
N2303      N2304   1.322       .  A
N2303     Mn2305   2.192       .  S
N2304      C2306   1.350       .  A
Mn2305    Cl2329   2.544       .  S
C2306      C2531   1.475       .  S
C2307      C2503   1.461       .  S
N2308      N2309   1.320       .  A
N2308      N2314   1.319       .  A
N2308     Mn2316   2.211       .  S
N2309      C2317   1.350       .  A
N2310      N2312   1.318       .  A
N2310      N2311   1.319       .  A
N2310     Mn2328   2.203       .  S
N2311      C2318   1.347       .  A
N2312      N2313   1.328       .  A
N2312     Mn2316   2.235       .  S
N2313      C2318   1.360       .  A
N2314      N2315   1.324       .  A
N2314     Mn2328   2.222       .  S
N2315      C2317   1.357       .  A
Mn2316    Cl2329   2.555       .  S
C2317      C2500   1.479       .  S
C2318      C2487   1.480   1_565  S
N2319      N2320   1.319       .  A
N2319      N2325   1.315       .  A
N2319     Mn2327   2.200       .  S
N2321      N2322   1.328       .  A
N2321      N2323   1.318       .  A
N2321     Mn2328   2.233       .  S
N2322      C2331   1.358       .  A
N2323      N2324   1.317       .  A
N2323     Mn2327   2.186       .  S
N2324      C2331   1.345       .  A
N2325     Mn2328   2.184       .  S
N2326      C2330   1.356       .  A
Mn2327    Cl2329   2.531       .  S
Mn2328    Cl2329   2.554       .  S
C2330      C2491   1.462       .  S
C2331      C2483   1.476       .  S
N2332      N2333   1.323       .  A
N2332      N2338   1.315       .  A
N2332     Mn2361   2.221       .  S
N2333      C2340   1.356       .  A
N2334      N2336   1.312       .  A
N2334      N2335   1.315       .  A
N2334     Mn2350   2.178       .  S
N2335      C2341   1.349       .  A
N2336      N2337   1.323       .  A
N2336     Mn2361   2.194       .  S
N2337      C2341   1.354       .  A
N2338      N2339   1.318       .  A
N2338     Mn2350   2.181       .  S
N2339      C2340   1.349       .  A
C2340      C2552   1.470       .  S
C2341      C2480   1.471       .  S
N2342      N2348   1.315       .  A
N2342      N2343   1.322       .  A
N2342     Mn2372   2.229       .  S
N2343      C2351   1.360       .  A
N2344      N2345   1.320       .  A
N2344      N2346   1.318       .  A
N2344     Mn2350   2.193       .  S
N2345      C2352   1.348       .  A
N2346      N2347   1.322       .  A
N2346     Mn2372   2.218       .  S
N2347      C2352   1.355       .  A
N2348      N2349   1.316       .  A
N2348     Mn2350   2.162       .  S
N2349      C2351   1.343       .  A
Mn2350    Cl2374   2.543       .  S
C2351      C2524   1.469       .  S
C2352      C2475   1.477       .  S
N2353      N2354   1.325       .  A
N2353      N2359   1.318       .  A
N2353     Mn2361   2.227       .  S
N2354      C2362   1.357       .  A
N2355      N2357   1.316       .  A
N2355      N2356   1.327       .  A
N2355     Mn2373   2.236       .  S
N2356      C2363   1.362       .  A
N2357      N2358   1.313       .  A
N2357     Mn2361   2.161       .  S
N2358      C2363   1.341       .  A
N2359      N2360   1.323       .  A
N2359     Mn2373   2.222       .  S
N2360      C2362   1.355       .  A
Mn2361    Cl2374   2.551       .  S
C2362      C2484   1.492       .  S
C2363      C2527   1.468       .  S
N2364      N2365   1.325       .  A
N2364      N2370   1.323       .  A
N2364     Mn2372   2.230       .  S
N2365      C2375   1.354       .  A
N2366      N2368   1.318       .  A
N2366     Mn2373   2.199       .  S
N2367      C2376   1.345       .  A
N2368      N2369   1.320       .  A
N2368     Mn2372   2.207       .  S
N2370      N2371   1.325       .  A
N2370     Mn2373   2.231       .  S
N2371      C2375   1.354       .  A
Mn2372    Cl2374   2.547       .  S
Mn2373    Cl2374   2.555       .  S
C2375      C2488   1.493       .  S
C2376      C2547   1.461       .  S
N2377      N2378   1.323       .  A
N2377      N2383   1.315       .  A
N2377     Mn2406   2.224       .  S
N2379      N2381   1.320       .  A
N2379      N2380   1.324       .  A
N2379     Mn2395   2.210       .  S
N2380      C2386   1.354       .  A
N2381      N2382   1.317       .  A
N2381     Mn2406   2.199       .  S
N2382      C2386   1.346       .  A
N2383     Mn2395   2.168       .  S
N2384      C2385   1.351       .  A
C2385      C2467   1.467       .  S
C2386      C2508   1.466       .  S
N2387      N2393   1.317       .  A
N2387      N2388   1.316       .  A
N2387     Mn2417   2.191       .  S
N2388      C2396   1.345       .  A
N2389      N2390   1.315       .  A
N2389      N2391   1.314       .  A
N2389     Mn2395   2.184       .  S
N2390      C2397   1.345       .  A
N2391      N2392   1.325       .  A
N2391     Mn2417   2.206       .  S
N2392      C2397   1.357       .  A
N2393      N2394   1.325       .  A
N2393     Mn2395   2.214       .  S
N2394      C2396   1.359       .  A
Mn2395    Cl2419   2.552       .  S
C2396      C2495   1.470       .  S
C2397      C2512   1.465       .  S
N2398      N2399   1.323       .  A
N2398      N2404   1.320       .  A
N2398     Mn2406   2.221       .  S
N2399      C2407   1.353       .  A
N2400      N2402   1.314       .  A
N2400      N2401   1.318       .  A
N2400     Mn2418   2.181       .  S
N2401      C2408   1.348       .  A
N2402      N2403   1.318       .  A
N2402     Mn2406   2.197       .  S
N2403      C2408   1.355       .  A
N2404      N2405   1.326       .  A
N2404     Mn2418   2.219       .  S
N2405      C2407   1.355       .  A
Mn2406    Cl2419   2.531       .  S
C2407      C2479   1.493       .  S
C2408      C2492   1.466       .  S
N2409      N2410   1.326       .  A
N2409      N2415   1.315       .  A
N2409     Mn2417   2.218       .  S
N2410      C2420   1.359       .  A
N2411      N2412   1.324       .  A
N2411      N2413   1.317       .  A
N2411     Mn2418   2.220       .  S
N2412      C2421   1.360       .  A
N2413      N2414   1.314       .  A
N2413     Mn2417   2.175       .  S
N2414      C2421   1.342       .  A
N2415      N2416   1.316       .  A
N2415     Mn2418   2.182       .  S
N2416      C2420   1.343       .  A
Mn2417    Cl2419   2.546       .  S
Mn2418    Cl2419   2.549       .  S
C2420      C2476   1.469       .  S
C2421      C2471   1.465       .  S
N2422      N2423   1.314       .  A
N2422      N2428   1.312       .  A
N2422     Mn2451   2.167       .  S
N2423      C2430   1.343       .  A
N2424      N2426   1.316       .  A
N2424      N2425   1.318       .  A
N2424     Mn2440   2.185       .  S
N2425      C2431   1.347       .  A
N2426      N2427   1.320       .  A
N2426     Mn2451   2.201       .  S
N2427      C2431   1.354       .  A
N2428      N2429   1.321       .  A
N2428     Mn2440   2.192       .  S
N2429      C2430   1.357       .  A
C2430      C2504   1.459       .  S
C2431      C2556   1.462       .  S
N2432      N2438   1.317       .  A
N2432      N2433   1.321       .  A
N2432     Mn2462   2.224       .  S
N2433      C2441   1.358       .  A
N2434      N2435   1.319       .  A
N2434      N2436   1.317       .  A
N2434     Mn2440   2.183       .  S
N2435      C2442   1.348       .  A
N2436      N2437   1.327       .  A
N2436     Mn2462   2.245       .  S
N2437      C2442   1.360       .  A
N2438      N2439   1.317       .  A
N2438     Mn2440   2.177       .  S
N2439      C2441   1.345       .  A
Mn2440    Cl2464   2.543       .  S
C2441      C2472   1.469       .  S
C2442      C2559   1.485       .  S
N2443      N2444   1.318       .  A
N2443      N2449   1.318       .  A
N2443     Mn2451   2.190       .  S
N2444      C2452   1.347       .  A
N2445      N2447   1.312       .  A
N2445     Mn2463   2.177       .  S
N2446      C2453   1.355       .  A
N2447      N2448   1.313       .  A
N2447     Mn2451   2.172       .  S
N2449      N2450   1.324       .  A
N2449     Mn2463   2.210       .  S
N2450      C2452   1.353       .  A
Mn2451    Cl2464   2.524       .  S
C2452      C2515   1.471   1_554  S
C2453      C2468   1.461       .  S
N2454      N2455   1.324       .  A
N2454      N2460   1.316       .  A
N2454     Mn2462   2.218       .  S
N2455      C2465   1.357       .  A
N2456      N2457   1.319       .  A
N2456      N2458   1.320       .  A
N2456     Mn2463   2.194       .  S
N2457      C2466   1.349       .  A
N2458      N2459   1.325       .  A
N2458     Mn2462   2.240       .  S
N2459      C2466   1.358       .  A
N2460      N2461   1.316       .  A
N2460     Mn2463   2.181       .  S
N2461      C2465   1.344       .  A
Mn2462    Cl2464   2.554       .  S
Mn2463    Cl2464   2.543       .  S
C2465      C2520   1.464   1_565  S
C2466      C2499   1.479       .  S
C2467      C2468   1.338       .  D
C2467      H2469   1.086       .  S
C2468      H2470   1.087       .  S
C2471      C2472   1.332       .  D
C2471      H2473   1.087       .  S
C2472      H2474   1.086       .  S
C2475      C2476   1.337       .  D
C2475      H2477   1.086       .  S
C2476      H2478   1.086       .  S
C2479      C2846   1.346   1_554  D
C2479      H2481   1.086       .  S
C2480      C2845   1.341       .  D
C2480      H2482   1.085       .  S
C2483      H2485   1.085   1_554  S
C2484      H2486   1.085       .  S
C2487      H2489   1.086       .  S
C2488      H2490   1.086       .  S
C2491      C2492   1.335       .  D
C2491      H2493   1.086       .  S
C2492      H2494   1.085       .  S
C2495      C2496   1.337       .  D
C2495      H2497   1.086       .  S
C2496      H2498   1.085       .  S
C2499      C2500   1.341       .  D
C2499      H2501   1.086       .  S
C2500      H2502   1.085       .  S
C2503      C2504   1.331       .  D
C2503      H2505   1.087       .  S
C2504      H2506   1.087       .  S
C2508      H2510   1.086   1_554  S
C2511      H2513   1.086       .  S
C2512      H2514   1.087       .  S
C2515      H2517   1.085       .  S
C2516      H2518   1.086       .  S
C2519      H2521   1.086       .  S
C2520      H2522   1.086       .  S
C2523      C2524   1.331       .  D
C2523      H2525   1.087       .  S
C2524      H2526   1.086       .  S
C2527      C2528   1.331       .  D
C2527      H2529   1.086       .  S
C2528      H2530   1.086       .  S
C2531      H2533   1.085       .  S
C2532      H2534   1.087       .  S
C2535      H2537   1.086       .  S
C2536      H2538   1.086       .  S
C2539      C2540   1.333       .  D
C2539      H2541   1.087       .  S
C2540      H2542   1.086       .  S
C2543      C2544   1.342       .  D
C2543      H2545   1.086       .  S
C2544      H2546   1.086       .  S
C2547      C2548   1.333       .  D
C2547      H2549   1.087       .  S
C2548      H2550   1.086       .  S
C2551      C2552   1.339       .  D
C2551      H2553   1.086       .  S
C2552      H2554   1.086       .  S
C2555      C2922   1.335       .  D
C2555      H2557   1.086       .  S
C2556      C2921   1.332   1_554  D
C2556      H2558   1.087       .  S
C2559      C2560   1.354       .  D
C2559      H2561   1.086       .  S
C2560      H2562   1.086       .  S
N2563      N2564   1.320       .  A
N2563      N2569   1.311       .  A
N2563     Mn2592   2.187       .  S
N2564      C2571   1.353       .  A
N2565      N2567   1.316       .  A
N2565      N2566   1.319       .  A
N2565     Mn2581   2.181       .  S
N2566      C2572   1.348       .  A
N2567      N2568   1.319       .  A
N2567     Mn2592   2.205       .  S
N2568      C2572   1.353       .  A
N2569      N2570   1.316       .  A
N2569     Mn2581   2.167       .  S
N2570      C2571   1.346       .  A
C2571      C2906   1.458       .  S
C2572      C2921   1.465       .  S
N2573      N2579   1.317       .  A
N2573      N2574   1.327       .  A
N2573     Mn2603   2.242       .  S
N2574      C2582   1.360       .  A
N2575      N2576   1.313       .  A
N2575      N2577   1.317       .  A
N2575     Mn2581   2.158       .  S
N2576      C2583   1.339       .  A
N2577      N2578   1.331       .  A
N2577     Mn2603   2.261       .  S
N2578      C2583   1.366       .  A
N2579      N2580   1.316       .  A
N2579     Mn2581   2.174       .  S
N2580      C2582   1.345       .  A
Mn2581    Cl2605   2.541       .  S
C2582      C2917   1.475       .  S
C2583      C2926   1.477       .  S
N2584      N2585   1.314       .  A
N2584      N2590   1.318       .  A
N2584     Mn2592   2.185       .  S
N2585      C2593   1.343       .  A
N2586      N2588   1.315       .  A
N2586     Mn2604   2.193       .  S
N2587      C2594   1.351       .  A
N2588      N2589   1.319       .  A
N2588     Mn2592   2.198       .  S
N2590      N2591   1.327       .  A
N2590     Mn2604   2.210       .  S
N2591      C2593   1.355       .  A
Mn2592    Cl2605   2.532       .  S
C2593      C2898   1.467       .  S
C2594      C2914   1.462       .  S
N2595      N2596   1.329       .  A
N2595      N2601   1.318       .  A
N2595     Mn2603   2.250       .  S
N2596      C2606   1.363       .  A
N2597      N2598   1.321       .  A
N2597      N2599   1.321       .  A
N2597     Mn2604   2.209       .  S
N2598      C2607   1.352       .  A
N2599      N2600   1.324       .  A
N2599     Mn2603   2.239       .  S
N2600      C2607   1.355       .  A
N2601      N2602   1.317       .  A
N2601     Mn2604   2.182       .  S
N2602      C2606   1.343       .  A
Mn2603    Cl2605   2.554       .  S
Mn2604    Cl2605   2.548       .  S
C2606      C2901   1.482   1_655  S
C2607      C2910   1.480       .  S
N2608      N2609   1.320       .  A
N2608      N2614   1.318       .  A
N2608     Mn2637   2.204       .  S
N2609      C2616   1.353       .  A
N2610      N2612   1.317       .  A
N2610     Mn2626   2.217       .  S
N2611      C2617   1.347       .  A
N2612      N2613   1.317       .  A
N2612     Mn2637   2.192       .  S
N2614      N2615   1.323       .  A
N2614     Mn2626   2.205       .  S
N2615      C2616   1.351       .  A
C2616      C2877   1.481   1_655  S
C2617      C2889   1.467       .  S
N2618      N2624   1.316       .  A
N2618      N2619   1.322       .  A
N2618     Mn2648   2.195       .  S
N2619      C2627   1.351       .  A
N2620      N2621   1.322       .  A
N2620      N2622   1.319       .  A
N2620     Mn2626   2.220       .  S
N2621      C2628   1.354       .  A
N2622      N2623   1.323       .  A
N2622     Mn2648   2.218       .  S
N2623      C2628   1.353       .  A
N2624      N2625   1.318       .  A
N2624     Mn2626   2.193       .  S
N2625      C2627   1.350       .  A
Mn2626    Cl2650   2.555       .  S
C2627      C2873   1.472   1_556  S
C2628      C2909   1.479       .  S
N2629      N2630   1.317       .  A
N2629      N2635   1.313       .  A
N2629     Mn2637   2.186       .  S
N2631      N2633   1.321       .  A
N2631      N2632   1.323       .  A
N2631     Mn2649   2.204       .  S
N2632      C2639   1.350       .  A
N2633      N2634   1.320       .  A
N2633     Mn2637   2.211       .  S
N2634      C2639   1.351       .  A
N2635     Mn2649   2.177       .  S
N2636      C2638   1.353   1_545  A
Mn2637    Cl2650   2.528       .  S
C2638      C2905   1.460       .  S
C2639      C2885   1.479       .  S
N2640      N2641   1.316       .  A
N2640      N2646   1.314       .  A
N2640     Mn2648   2.175       .  S
N2641      C2651   1.345       .  A
N2642      N2643   1.316       .  A
N2642      N2644   1.317       .  A
N2642     Mn2649   2.188       .  S
N2643      C2652   1.345       .  A
N2644      N2645   1.329       .  A
N2644     Mn2648   2.242       .  S
N2645      C2652   1.362       .  A
N2646      N2647   1.321       .  A
N2646     Mn2649   2.202       .  S
N2647      C2651   1.356       .  A
Mn2648    Cl2650   2.545       .  S
Mn2649    Cl2650   2.551       .  S
C2651      C2894   1.464       .  S
C2652      C2882   1.478       .  S
N2653      N2654   1.329       .  A
N2653      N2659   1.315       .  A
N2653     Mn2682   2.245       .  S
N2654      C2661   1.364       .  A
N2655      N2657   1.314       .  A
N2655      N2656   1.320       .  A
N2655     Mn2671   2.178       .  S
N2656      C2662   1.350       .  A
N2657      N2658   1.316       .  A
N2657     Mn2682   2.196       .  S
N2658      C2662   1.351       .  A
N2659      N2660   1.317       .  A
N2659     Mn2671   2.180       .  S
N2660      C2661   1.344       .  A
C2661      C2902   1.484       .  S
C2662      C2862   1.464       .  S
N2663      N2669   1.318       .  A
N2663      N2664   1.322       .  A
N2663     Mn2693   2.218       .  S
N2664      C2672   1.353       .  A
N2665      N2667   1.313       .  A
N2665     Mn2671   2.157       .  S
N2666      C2673   1.344       .  A
N2667      N2668   1.324       .  A
N2667     Mn2693   2.226       .  S
N2669      N2670   1.322       .  A
N2669     Mn2671   2.203       .  S
N2670      C2672   1.352       .  A
Mn2671    Cl2695   2.551       .  S
C2672      C2897   1.476       .  S
C2673      C2869   1.471       .  S
N2674      N2675   1.319       .  A
N2674      N2680   1.320       .  A
N2674     Mn2682   2.209       .  S
N2675      C2683   1.348       .  A
N2676      N2678   1.316       .  A
N2676      N2677   1.319       .  A
N2676     Mn2694   2.205       .  S
N2677      C2684   1.351       .  A
N2678      N2679   1.324       .  A
N2678     Mn2682   2.209       .  S
N2679      C2684   1.355       .  A
N2680      N2681   1.326       .  A
N2680     Mn2694   2.234       .  S
N2681      C2683   1.360       .  A
Mn2682    Cl2695   2.547       .  S
C2683      C2866   1.483       .  S
C2684      C2853   1.481       .  S
N2685      N2686   1.319       .  A
N2685      N2691   1.318       .  A
N2685     Mn2693   2.209       .  S
N2687      N2688   1.328       .  A
N2687      N2689   1.321       .  A
N2687     Mn2694   2.234       .  S
N2688      C2697   1.357       .  A
N2689      N2690   1.321       .  A
N2689     Mn2693   2.210       .  S
N2690      C2697   1.351       .  A
N2691     Mn2694   2.194       .  S
N2692      C2696   1.346       .  A
Mn2693    Cl2695   2.539       .  S
Mn2694    Cl2695   2.557       .  S
C2696      C2857   1.464       .  S
C2697      C2849   1.493   1_565  S
N2698      N2699   1.319       .  A
N2698      N2704   1.318       .  A
N2698     Mn2727   2.197       .  S
N2699      C2706   1.347       .  A
N2700      N2702   1.318       .  A
N2700      N2701   1.317       .  A
N2700     Mn2716   2.195       .  S
N2701      C2707   1.346       .  A
N2702      N2703   1.331       .  A
N2702     Mn2727   2.252       .  S
N2703      C2707   1.363       .  A
N2704      N2705   1.325       .  A
N2704     Mn2716   2.228       .  S
N2705      C2706   1.359       .  A
C2706      C2918   1.477       .  S
C2707      C2846   1.485       .  S
N2708      N2714   1.314       .  A
N2708      N2709   1.314       .  A
N2708     Mn2738   2.170       .  S
N2709      C2717   1.344       .  A
N2710      N2711   1.325       .  A
N2710      N2712   1.317       .  A
N2710     Mn2716   2.216       .  S
N2711      C2718   1.355       .  A
N2712      N2713   1.318       .  A
N2712     Mn2738   2.196       .  S
N2713      C2718   1.348       .  A
N2714      N2715   1.323       .  A
N2714     Mn2716   2.210       .  S
N2715      C2717   1.357       .  A
Mn2716    Cl2740   2.561       .  S
C2717      C2890   1.463       .  S
C2718      C2841   1.474       .  S
N2719      N2720   1.326       .  A
N2719      N2725   1.317       .  A
N2719     Mn2727   2.222       .  S
N2720      C2728   1.358       .  A
N2721      N2723   1.316       .  A
N2721      N2722   1.316       .  A
N2721     Mn2739   2.164       .  S
N2722      C2729   1.345       .  A
N2723      N2724   1.321       .  A
N2723     Mn2727   2.225       .  S
N2724      C2729   1.357       .  A
N2725      N2726   1.318       .  A
N2725     Mn2739   2.201       .  S
N2726      C2728   1.350       .  A
Mn2727    Cl2740   2.548       .  S
C2728      C2850   1.485   1_556  S
C2729      C2893   1.465       .  S
N2730      N2731   1.316       .  A
N2730      N2736   1.316       .  A
N2730     Mn2738   2.181       .  S
N2731      C2741   1.349       .  A
N2732      N2734   1.313       .  A
N2732     Mn2739   2.162       .  S
N2733      C2742   1.352       .  A
N2734      N2735   1.316       .  A
N2734     Mn2738   2.190       .  S
N2736      N2737   1.325       .  A
N2736     Mn2739   2.213       .  S
N2737      C2741   1.354       .  A
Mn2738    Cl2740   2.519       .  S
Mn2739    Cl2740   2.552       .  S
C2741      C2854   1.480       .  S
C2742      C2913   1.464       .  S
N2743      N2744   1.313       .  A
N2743      N2749   1.311       .  A
N2743     Mn2772   2.175       .  S
N2745      N2747   1.316       .  A
N2745      N2746   1.327       .  A
N2745     Mn2761   2.219       .  S
N2746      C2752   1.357       .  A
N2747      N2748   1.316       .  A
N2747     Mn2772   2.181       .  S
N2748      C2752   1.345       .  A
N2749     Mn2761   2.173       .  S
N2750      C2751   1.348       .  A
C2751      C2833   1.457       .  S
C2752      C2874   1.471       .  S
N2753      N2759   1.318       .  A
N2753      N2754   1.317       .  A
N2753     Mn2783   2.198       .  S
N2754      C2762   1.348       .  A
N2755      N2756   1.316       .  A
N2755      N2757   1.317       .  A
N2755     Mn2761   2.187       .  S
N2756      C2763   1.345       .  A
N2757      N2758   1.328       .  A
N2757     Mn2783   2.231       .  S
N2758      C2763   1.360       .  A
N2759      N2760   1.319       .  A
N2759     Mn2761   2.193       .  S
N2760      C2762   1.353       .  A
Mn2761    Cl2785   2.561       .  S
C2762      C2861   1.462       .  S
C2763      C2878   1.472       .  S
N2764      N2765   1.315       .  A
N2764      N2770   1.315       .  A
N2764     Mn2772   2.179       .  S
N2765      C2773   1.346       .  A
N2766      N2768   1.313       .  A
N2766      N2767   1.321       .  A
N2766     Mn2784   2.199       .  S
N2767      C2774   1.356       .  A
N2768      N2769   1.315       .  A
N2768     Mn2772   2.171       .  S
N2769      C2774   1.345       .  A
N2770      N2771   1.322       .  A
N2770     Mn2784   2.204       .  S
N2771      C2773   1.354       .  A
Mn2772    Cl2785   2.513       .  S
C2773      C2845   1.460       .  S
C2774      C2858   1.461       .  S
N2775      N2776   1.323       .  A
N2775      N2781   1.317       .  A
N2775     Mn2783   2.214       .  S
N2776      C2786   1.354       .  A
N2777      N2778   1.322       .  A
N2777      N2779   1.317       .  A
N2777     Mn2784   2.203       .  S
N2778      C2787   1.352       .  A
N2779      N2780   1.320       .  A
N2779     Mn2783   2.216       .  S
N2780      C2787   1.355       .  A
N2781      N2782   1.320       .  A
N2781     Mn2784   2.202       .  S
N2782      C2786   1.352       .  A
Mn2783    Cl2785   2.533       .  S
Mn2784    Cl2785   2.561       .  S
C2786      C2842   1.479       .  S
C2787      C2837   1.479       .  S
N2788      N2789   1.315       .  A
N2788      N2794   1.313       .  A
N2788     Mn2817   2.166       .  S
N2789      C2796   1.344       .  A
N2790      N2792   1.320       .  A
N2790      N2791   1.319       .  A
N2790     Mn2806   2.195       .  S
N2791      C2797   1.347       .  A
N2792      N2793   1.323       .  A
N2792     Mn2817   2.217       .  S
N2793      C2797   1.354       .  A
N2794      N2795   1.325       .  A
N2794     Mn2806   2.220       .  S
N2795      C2796   1.360       .  A
C2796      C2870   1.470       .  S
C2797      C2922   1.472       .  S
N2798      N2804   1.319       .  A
N2798      N2799   1.317       .  A
N2798     Mn2828   2.197       .  S
N2799      C2807   1.347       .  A
N2800      N2801   1.316       .  A
N2800      N2802   1.317       .  A
N2800     Mn2806   2.166       .  S
N2801      C2808   1.341       .  A
N2802      N2803   1.328       .  A
N2802     Mn2828   2.254       .  S
N2803      C2808   1.365       .  A
N2804      N2805   1.325       .  A
N2804     Mn2806   2.227       .  S
N2805      C2807   1.358       .  A
Mn2806    Cl2830   2.542       .  S
C2807      C2838   1.474       .  S
C2808      C2925   1.480       .  S
N2809      N2810   1.318       .  A
N2809      N2815   1.319       .  A
N2809     Mn2817   2.199       .  S
N2810      C2818   1.352       .  A
N2811      N2813   1.312       .  A
N2811     Mn2829   2.174       .  S
N2812      C2819   1.353       .  A
N2813      N2814   1.316       .  A
N2813     Mn2817   2.184       .  S
N2815      N2816   1.322       .  A
N2815     Mn2829   2.195       .  S
N2816      C2818   1.348       .  A
Mn2817    Cl2830   2.535       .  S
C2818      C2881   1.477   1_565  S
C2819      C2834   1.452       .  S
N2820      N2821   1.325       .  A
N2820      N2826   1.315       .  A
N2820     Mn2828   2.214       .  S
N2821      C2831   1.358       .  A
N2822      N2823   1.319       .  A
N2822      N2824   1.318       .  A
N2822     Mn2829   2.190       .  S
N2823      C2832   1.348       .  A
N2824      N2825   1.326       .  A
N2824     Mn2828   2.246       .  S
N2825      C2832   1.360       .  A
N2826      N2827   1.316       .  A
N2826     Mn2829   2.177       .  S
N2827      C2831   1.344       .  A
Mn2828    Cl2830   2.557       .  S
Mn2829    Cl2830   2.537       .  S
C2831      C2886   1.465   1_565  S
C2832      C2865   1.483       .  S
C2833      C2834   1.333       .  D
C2833      H2835   1.087       .  S
C2834      H2836   1.087       .  S
C2837      C2838   1.341       .  D
C2837      H2839   1.086       .  S
C2838      H2840   1.087       .  S
C2841      C2842   1.344       .  D
C2841      H2843   1.086       .  S
C2842      H2844   1.086       .  S
C2845      H2847   1.085       .  S
C2846      H2848   1.086       .  S
C2849      H2851   1.086       .  S
C2850      H2852   1.086       .  S
C2853      H2855   1.086       .  S
C2854      H2856   1.086       .  S
C2857      C2858   1.333       .  D
C2857      H2859   1.086       .  S
C2858      H2860   1.086       .  S
C2861      C2862   1.338       .  D
C2861      H2863   1.086       .  S
C2862      H2864   1.085       .  S
C2865      C2866   1.340       .  D
C2865      H2867   1.086       .  S
C2866      H2868   1.086       .  S
C2869      C2870   1.333       .  D
C2869      H2871   1.087       .  S
C2870      H2872   1.087       .  S
C2874      H2876   1.086       .  S
C2877      H2879   1.086       .  S
C2878      H2880   1.087       .  S
C2881      H2883   1.086       .  S
C2882      H2884   1.086       .  S
C2885      H2887   1.087       .  S
C2886      H2888   1.086       .  S
C2889      C2890   1.334       .  D
C2889      H2891   1.086       .  S
C2890      H2892   1.086       .  S
C2893      C2894   1.334       .  D
C2893      H2895   1.086       .  S
C2894      H2896   1.086       .  S
C2897      H2899   1.086       .  S
C2898      H2900   1.088   1_655  S
C2901      H2903   1.086       .  S
C2902      H2904   1.086       .  S
C2905      C2906   1.334       .  D
C2905      H2907   1.086       .  S
C2906      H2908   1.087       .  S
C2909      C2910   1.346       .  D
C2909      H2911   1.086       .  S
C2910      H2912   1.086       .  S
C2913      C2914   1.339       .  D
C2913      H2915   1.086       .  S
C2914      H2916   1.086       .  S
C2917      C2918   1.336       .  D
C2917      H2919   1.087       .  S
C2918      H2920   1.086       .  S
C2921      H2923   1.086       .  S
C2922      H2924   1.087       .  S
C2925      C2926   1.331       .  D
C2925      H2927   1.086       .  S
C2926      H2928   1.087       .  S
