geometry optimzed in LAMMPS
_audit_creation_date              2020-11-30 
_audit_creation_method            'lammps2cif' 
_symmetry_space_group_name_H-M    'P1' 
_symmetry_Int_Tables_number       1 
_symmetry_cell_setting            triclinic 
loop_ 
_symmetry_equiv_pos_as_xyz 
  x,y,z 
_cell_length_a                    36.129392902488576 
_cell_length_b                    36.09103586453034 
_cell_length_c                    36.08750111818024 
_cell_angle_alpha                 90.14561805258977 
_cell_angle_beta                  89.98747570019358 
_cell_angle_gamma                 89.92194673983137 
loop_ 
_atom_site_label 
_atom_site_type_symbol 
_atom_site_fract_x 
_atom_site_fract_y 
_atom_site_fract_z 
_atom_site_charge 
C1          C  0.23470117  0.85278582  0.96740433     0.03350
C2          C  0.23971223  0.89143522  0.96749290    -0.12800
C3          C  0.24173302  0.91109072  0.00114051     0.00850
C4          C  0.24025389  0.89137339  0.03466042    -0.11330
C5          C  0.23486257  0.85280413  0.03489125     0.03340
C6          C  0.23236918  0.83380885  0.00111147    -0.10750
H7          H  0.24056950  0.90629734  0.94145203     0.08930
H8          H  0.24317565  0.90620493  0.06061245     0.06460
H9          H  0.22819834  0.80407664  0.00098526     0.06310
C10         C  0.66510957  0.13227343  0.03317238     0.03350
C11         C  0.66429536  0.15106884  0.99921711    -0.12800
C12         C  0.66272790  0.13153106  0.96564107     0.00850
C13         C  0.66052306  0.09264373  0.96614512    -0.11330
C14         C  0.66070409  0.07344260  0.99988909     0.03340
C15         C  0.66324536  0.09334256  0.03325252    -0.10750
H16         H  0.66561648  0.18102522  0.99880525     0.08930
H17         H  0.65947591  0.07729177  0.94031363     0.06460
H18         H  0.66421225  0.07839668  0.05924613     0.06310
C19         C  0.98500422  0.70398180  0.13827368     0.03350
C20         C  0.95102788  0.70594617  0.15699721    -0.12800
C21         C  0.91738864  0.70590625  0.13748094     0.00850
C22         C  0.91817253  0.70415336  0.09851492    -0.11330
C23         C  0.95184675  0.70117461  0.07928103     0.03340
C24         C  0.98511300  0.70109817  0.09940808    -0.10750
H25         H  0.95079207  0.70841276  0.18689072     0.08930
H26         H  0.89268756  0.70646128  0.08293691     0.06460
H27         H  0.01119983  0.69903543  0.08471914     0.06310
C28         C  0.91712076  0.28029255  0.86150449     0.03350
C29         C  0.95079929  0.27955702  0.84205103    -0.12800
C30         C  0.98486633  0.28066241  0.86084770     0.00850
C31         C  0.98475526  0.28237956  0.89982918    -0.11330
C32         C  0.95141665  0.28467896  0.91977918     0.03340
C33         C  0.91776352  0.28398997  0.90032386    -0.10750
H34         H  0.95044775  0.27741113  0.81212631     0.08930
H35         H  0.01062607  0.28145882  0.91488954     0.06460
H36         H  0.89201141  0.28541682  0.91557552     0.06310
C37         C  0.66519340  0.85520662  0.96745229     0.03350
C38         C  0.65964779  0.89380155  0.96798149    -0.12800
C39         C  0.65914792  0.91331980  0.00161398     0.00850
C40         C  0.66252576  0.89390177  0.03504332    -0.11330
C41         C  0.66731906  0.85522052  0.03511065     0.03340
C42         C  0.66863029  0.83617886  0.00116332    -0.10750
H43         H  0.65671412  0.90889832  0.94224947     0.08930
H44         H  0.66133387  0.90907883  0.06093960     0.06460
H45         H  0.67369564  0.80657687  0.00094979     0.06310
C46         C  0.23672037  0.13081451  0.03310110     0.03350
C47         C  0.24110414  0.09224961  0.03360852    -0.12800
C48         C  0.24390716  0.07211106  0.00032142     0.00850
C49         C  0.24255252  0.09133603  0.96645865    -0.11330
C50         C  0.23702131  0.13002372  0.96562742     0.03340
C51         C  0.23449783  0.14947812  0.99929024    -0.10750
H52         H  0.24199255  0.07792213  0.05995611     0.08930
H53         H  0.24483880  0.07597452  0.94078004     0.06460
H54         H  0.22967976  0.17912466  0.99935493     0.06310
C55         C  0.91770289  0.70751236  0.86019840     0.03350
C56         C  0.95118378  0.71019414  0.84072345    -0.12800
C57         C  0.98517585  0.70818415  0.85923945     0.00850
C58         C  0.98567124  0.70382145  0.89788317    -0.11330
C59         C  0.95251501  0.70255256  0.91822195     0.03340
C60         C  0.91862877  0.70376058  0.89904346    -0.10750
H61         H  0.95091598  0.71426410  0.81102336     0.08930
H62         H  0.01197809  0.70214199  0.91218864     0.06460
H63         H  0.89293498  0.70251281  0.91446126     0.06310
C64         C  0.98337140  0.27872022  0.14009786     0.03350
C65         C  0.98388308  0.28285941  0.10135537    -0.12800
C66         C  0.95091223  0.28295461  0.08078234     0.00850
C67         C  0.91695609  0.28044939  0.09954218    -0.11330
C68         C  0.91577054  0.27740147  0.13839996     0.03340
C69         C  0.94915997  0.27606328  0.15830977    -0.10750
H70         H  0.01010405  0.28564261  0.08707914     0.08930
H71         H  0.89153706  0.27946975  0.08368106     0.06460
H72         H  0.94844774  0.27222129  0.18802635     0.06310
C73         C  0.81196526  0.95858937  0.28602508     0.03350
C74         C  0.79224052  0.99195495  0.28508385    -0.12800
C75         C  0.81095958  0.02592471  0.28580358     0.00850
C76         C  0.84974994  0.02614867  0.28898116    -0.11330
C77         C  0.86993015  0.99284514  0.28956086     0.03340
C78         C  0.85074313  0.95905824  0.28824657    -0.10750
H79         H  0.76238485  0.99138223  0.28212700     0.08930
H80         H  0.86429430  0.05230290  0.29080844     0.06460
H81         H  0.86594872  0.93314821  0.28815820     0.06310
C82         C  0.08929037  0.02589842  0.71258142     0.03350
C83         C  0.10841183  0.99212948  0.71471332    -0.12800
C84         C  0.08929114  0.95831149  0.71611034     0.00850
C85         C  0.05032936  0.95875904  0.71576810    -0.11330
C86         C  0.03070716  0.99218542  0.71237430     0.03340
C87         C  0.05041315  0.02561741  0.71073082    -0.10750
H88         H  0.13830312  0.99222583  0.71632997     0.08930
H89         H  0.03505400  0.93315061  0.71854189     0.06460
H90         H  0.03539253  0.05157508  0.70921376     0.06310
C91         C  0.81116522  0.95919223  0.71500978     0.03350
C92         C  0.85014865  0.95910666  0.71554018    -0.12800
C93         C  0.87015292  0.99241971  0.71380572     0.00850
C94         C  0.85084812  0.02615055  0.71258117    -0.11330
C95         C  0.81198210  0.02674570  0.71205405     0.03340
C96         C  0.79253494  0.99317361  0.71198345    -0.10750
H97         H  0.86506026  0.93313534  0.71746077     0.08930
H98         H  0.86618689  0.05189911  0.71338799     0.06460
H99         H  0.76267065  0.99373662  0.70974528     0.06310
C100        C  0.08911978  0.02596143  0.28456698     0.03350
C101        C  0.05024618  0.02571038  0.28659353    -0.12800
C102        C  0.03058748  0.99230230  0.28939971     0.00850
C103        C  0.05019871  0.95869468  0.28908852    -0.11330
C104        C  0.08893937  0.95816481  0.28502483     0.03340
C105        C  0.10814370  0.99196904  0.28358905    -0.10750
H106        H  0.03505221  0.05155030  0.28557878     0.08930
H107        H  0.03511422  0.93289595  0.29108714     0.06460
H108        H  0.13800837  0.99180006  0.28107404     0.06310
C109        C  0.48374188  0.35389463  0.21345113     0.03350
C110        C  0.44996444  0.33493025  0.21362373    -0.12800
C111        C  0.41624524  0.35431115  0.21277499     0.00850
C112        C  0.41684254  0.39332713  0.21098728    -0.11330
C113        C  0.45054474  0.41271879  0.20913932     0.03340
C114        C  0.48386882  0.39267064  0.21052023    -0.10750
H115        H  0.45001863  0.30495954  0.21534419     0.08930
H116        H  0.39117882  0.40874711  0.21239118     0.06460
H117        H  0.51002183  0.40728285  0.20938624     0.06310
O118        O  0.67959691  0.18940598  0.20128916    -0.85130
O119        O  0.69648925  0.16698066  0.27208080    -0.82180
C120        C  0.73134663  0.16375571  0.27018841     0.98330
O121        O  0.75132130  0.19196650  0.26697628    -0.82210
O122        O  0.77469738  0.26150431  0.25096416    -0.84860
C123        C  0.77633825  0.26358275  0.21595060     1.02860
O124        O  0.74737737  0.26370251  0.19666140    -0.77620
O125        O  0.67745666  0.24462403  0.17575236    -0.77810
C126        C  0.67724497  0.20951344  0.17299002     1.02810
O127        O  0.62439941  0.23966412  0.22819580    -0.85130
O128        O  0.64687101  0.22287523  0.29907738    -0.82190
C129        C  0.66706297  0.22068930  0.32736882     0.98350
O130        O  0.70211239  0.22028986  0.32449462    -0.82220
O131        O  0.72169215  0.28987680  0.30343696    -0.84830
C132        C  0.72211035  0.31880918  0.28417055     1.02820
O133        O  0.71969107  0.31716376  0.24916275    -0.77650
O134        O  0.64975694  0.29443299  0.23315828    -0.77790
C135        C  0.62145115  0.27459426  0.22984094     1.02780
Cr136      Cr  0.66453666  0.20741306  0.25016980     1.93740
Cr137      Cr  0.73477218  0.24089417  0.28392924     1.93210
Cr138      Cr  0.69853743  0.27730948  0.21623113     1.39100
O139        O  0.69940173  0.24199775  0.25010422    -1.22880
C140        C  0.48354283  0.35277118  0.78672116     0.03350
C141        C  0.44992385  0.33390824  0.78196286    -0.12800
C142        C  0.41612892  0.35271756  0.78493966     0.00850
C143        C  0.41570720  0.39107866  0.79154661    -0.11330
C144        C  0.44905712  0.41066422  0.79595460     0.03340
C145        C  0.48267363  0.39093507  0.79479780    -0.10750
H146        H  0.44988384  0.30454665  0.77559861     0.08930
H147        H  0.38949786  0.40566175  0.79179784     0.06460
H148        H  0.50829157  0.40563555  0.79977514     0.06310
C149        C  0.58922929  0.20754355  0.46674880     0.03350
C150        C  0.60846946  0.20820308  0.50057871    -0.12800
C151        C  0.58951012  0.20543598  0.53442588     0.00850
C152        C  0.55098894  0.20029901  0.53405299    -0.11330
C153        C  0.53100527  0.20158522  0.50077611     0.03340
C154        C  0.55033747  0.20527784  0.46724077    -0.10750
H155        H  0.63827267  0.21129970  0.50058139     0.08930
H156        H  0.53637306  0.19573211  0.55981482     0.06460
H157        H  0.53492632  0.20738008  0.44160852     0.06310
O158        O  0.72258331  0.31735333  0.75206719    -0.85130
O159        O  0.65208207  0.29514826  0.76885200    -0.82180
C160        C  0.62365113  0.27524397  0.77151642     0.98330
O161        O  0.62674108  0.24021963  0.77282208    -0.82210
O162        O  0.64839555  0.22318800  0.70212261    -0.84860
C163        C  0.66795669  0.22083012  0.67337570     1.02860
O164        O  0.70295644  0.22037505  0.67572717    -0.77620
O165        O  0.71805806  0.29119260  0.69748743    -0.77810
C166        C  0.72052293  0.31987843  0.71705438     1.02810
O167        O  0.74972595  0.26161486  0.80275422    -0.85130
O168        O  0.67909527  0.24495773  0.82502774    -0.82190
C169        C  0.68082973  0.20995556  0.82779583     0.98350
O170        O  0.68360385  0.19009586  0.79931708    -0.82220
O171        O  0.69981602  0.16803663  0.72908615    -0.84830
C172        C  0.73486102  0.16582951  0.72821381     1.02820
O173        O  0.75457246  0.19446076  0.73008594    -0.77650
O174        O  0.77525487  0.26554356  0.74776599    -0.77790
C175        C  0.77816090  0.26434836  0.78283085     1.02780
Cr176      Cr  0.70091937  0.27732693  0.78477526     1.93740
Cr177      Cr  0.66702712  0.20782584  0.75080117     1.93210
Cr178      Cr  0.73530799  0.24297816  0.71534780     1.39100
O179        O  0.70118376  0.24255508  0.75036018    -1.22880
C180        C  0.73551233  0.52618618  0.36128007     0.03350
C181        C  0.73479573  0.49227874  0.34231209    -0.12800
C182        C  0.73443619  0.45862235  0.36160922     0.00850
C183        C  0.73706896  0.45908717  0.40050386    -0.11330
C184        C  0.73954189  0.49275960  0.42001695     0.03340
C185        C  0.73834112  0.52622159  0.40013866    -0.10750
H186        H  0.73470913  0.49214313  0.31231033     0.08930
H187        H  0.73614751  0.43324667  0.41568199     0.06460
H188        H  0.73926023  0.55233957  0.41497603     0.06310
C189        C  0.41889513  0.63234458  0.21174055     0.03350
C190        C  0.41976167  0.59347427  0.20748308    -0.12800
C191        C  0.45351230  0.57396654  0.20734250     0.00850
C192        C  0.48673518  0.59408161  0.20952707    -0.11330
C193        C  0.48629848  0.63273026  0.21412625     0.03340
C194        C  0.45239928  0.65150085  0.21546721    -0.10750
H195        H  0.39406700  0.57819516  0.20538840     0.08930
H196        H  0.51300696  0.57963370  0.20846728     0.06460
H197        H  0.45227239  0.68112423  0.22009906     0.06310
O198        O  0.72185908  0.66748132  0.24849561    -0.85130
O199        O  0.65211629  0.69075660  0.23158623    -0.82180
C200        C  0.62407432  0.71110577  0.22894282     0.98330
O201        O  0.62708409  0.74608916  0.22911731    -0.82210
O202        O  0.64926986  0.76282965  0.29961122    -0.84860
C203        C  0.66931449  0.76442379  0.32804807     1.02860
O204        O  0.70441046  0.76387396  0.32540732    -0.77620
O205        O  0.72341679  0.69408792  0.30332049    -0.77810
C206        C  0.72404096  0.66540473  0.28351439     1.02810
O207        O  0.74986866  0.72175999  0.19719608    -0.85130
O208        O  0.67970293  0.74094848  0.17613181    -0.82190
C209        C  0.68134689  0.77597709  0.17360130     0.98350
O210        O  0.68397067  0.79568551  0.20226691    -0.82220
O211        O  0.69978917  0.81759980  0.27341431    -0.84830
C212        C  0.73463314  0.82036565  0.27178457     1.02820
O213        O  0.75446967  0.79201864  0.26849152    -0.77650
O214        O  0.77694915  0.72209699  0.25162128    -0.77790
C215        C  0.77873397  0.72070950  0.21656976     1.02780
Cr216      Cr  0.70097334  0.70788627  0.21604916     1.93740
Cr217      Cr  0.66760436  0.77785402  0.25095143     1.93210
Cr218      Cr  0.73712252  0.74309430  0.28469179     1.39100
O219        O  0.70180559  0.74264209  0.25077526    -1.22880
C220        C  0.58983508  0.77663118  0.46670094     0.03350
C221        C  0.60871003  0.77569872  0.50070467    -0.12800
C222        C  0.58938884  0.77632082  0.53446214     0.00850
C223        C  0.55046557  0.77775320  0.53391612    -0.11330
C224        C  0.53110091  0.77855584  0.50023000     0.03340
C225        C  0.55089706  0.77789104  0.46677900    -0.10750
H226        H  0.63861064  0.77376510  0.50084231     0.08930
H227        H  0.53511208  0.77832504  0.55971108     0.06460
H228        H  0.53577848  0.77693484  0.44089483     0.06310
C229        C  0.73663270  0.45865007  0.63911450     0.03350
C230        C  0.74052994  0.45925465  0.60029516    -0.12800
C231        C  0.74222047  0.49307610  0.58109931     0.00850
C232        C  0.74175798  0.52634725  0.60141539    -0.11330
C233        C  0.73726957  0.52619709  0.64011186     0.03340
C234        C  0.73408838  0.49224248  0.65851401    -0.10750
H235        H  0.74125616  0.43343173  0.58493994     0.08930
H236        H  0.74431467  0.55249809  0.58697138     0.06460
H237        H  0.72817474  0.49191335  0.68792038     0.06310
C238        C  0.48518927  0.63023493  0.78929152     0.03350
C239        C  0.48473854  0.59198148  0.79661947    -0.12800
C240        C  0.45131611  0.57203526  0.79697160     0.00850
C241        C  0.41777891  0.59160033  0.79365760    -0.11330
C242        C  0.41762883  0.63023712  0.78819834     0.03340
C243        C  0.45145704  0.64895594  0.78496187    -0.10750
H244        H  0.51050636  0.57749442  0.80150881     0.08930
H245        H  0.39181475  0.57665750  0.79452605     0.06460
H246        H  0.45154452  0.67809745  0.77790510     0.06310
O247        O  0.71777339  0.69388268  0.69856281    -0.85130
O248        O  0.70186027  0.76432553  0.67649549    -0.82180
C249        C  0.66683250  0.76327543  0.67423459     0.98330
O250        O  0.64737609  0.76164529  0.70306090    -0.82210
O251        O  0.62606304  0.74495752  0.77371529    -0.84860
C252        C  0.62334854  0.70989193  0.77232883     1.02860
O253        O  0.65193125  0.69017956  0.76952270    -0.77620
O254        O  0.72254256  0.66814789  0.75315991    -0.77810
C255        C  0.72049188  0.66533967  0.71815863     1.02810
O256        O  0.77461526  0.72032851  0.74896069    -0.85130
O257        O  0.75341322  0.79086231  0.73115318    -0.82190
C258        C  0.73380489  0.81954238  0.72890712     0.98350
O259        O  0.69872279  0.81737560  0.72978083    -0.82220
O260        O  0.68254660  0.79552246  0.80019755    -0.84830
C261        C  0.67977447  0.77581113  0.82871077     1.02820
O262        O  0.67824569  0.74078923  0.82585463    -0.77650
O263        O  0.74886493  0.72443784  0.80384816    -0.77790
C264        C  0.77738694  0.72208120  0.78403886     1.02780
Cr265      Cr  0.73453591  0.74230375  0.71630536     1.93740
Cr266      Cr  0.66607506  0.77749391  0.75164648     1.93210
Cr267      Cr  0.70040863  0.70830219  0.78568992     1.39100
O268        O  0.70042565  0.74284849  0.75124965    -1.22880
C269        C  0.31263065  0.77726390  0.53414436     0.03350
C270        C  0.35153562  0.77540066  0.53329946    -0.12800
C271        C  0.37078946  0.77660995  0.49952895     0.00850
C272        C  0.35079178  0.77767145  0.46619005    -0.11330
C273        C  0.31182344  0.77874800  0.46644725     0.03340
C274        C  0.29335491  0.78083722  0.50058665    -0.10750
H275        H  0.36701478  0.77304042  0.55888643     0.08930
H276        H  0.36567642  0.77655760  0.44014764     0.06460
H277        H  0.26372095  0.78505046  0.50096510     0.06310
C278        C  0.16550871  0.45818425  0.63757999     0.03350
C279        C  0.16898690  0.49191998  0.65661296    -0.12800
C280        C  0.16396933  0.52578125  0.63838686     0.00850
C281        C  0.15714671  0.52567960  0.60004488    -0.11330
C282        C  0.15640790  0.49235206  0.57982863     0.03340
C283        C  0.15958890  0.45861468  0.59901099    -0.10750
H284        H  0.17677605  0.49178980  0.68555839     0.08930
H285        H  0.15291759  0.55169950  0.58577167     0.06460
H286        H  0.15827783  0.43273535  0.58380289     0.06310
O287        O  0.20418345  0.81768686  0.73207324    -0.85130
O288        O  0.22058244  0.79369483  0.80169570    -0.82180
C289        C  0.22244699  0.77314003  0.82960391     0.98330
O290        O  0.22198448  0.73813624  0.82625177    -0.82210
O291        O  0.15208232  0.72141124  0.80250766    -0.84860
C292        C  0.12408519  0.72000283  0.78190299     1.02860
O293        O  0.12727480  0.72109088  0.74689744    -0.77620
O294        O  0.14951584  0.79120117  0.73078971    -0.77810
C295        C  0.16915136  0.81989496  0.73031044     1.02810
O296        O  0.25570973  0.76321108  0.70379907    -0.85130
O297        O  0.27614316  0.74338806  0.77396831    -0.82190
C298        C  0.27858404  0.70835472  0.77178353     0.98350
O299        O  0.24991801  0.68890012  0.76897668    -0.82220
O300        O  0.17968564  0.66739079  0.75102182    -0.85670
C301        C  0.18151487  0.66530949  0.71600261     1.02820
O302        O  0.18456606  0.69424418  0.69703742    -0.77650
O303        O  0.20150432  0.76470001  0.67658540    -0.77790
C304        C  0.23653330  0.76545667  0.67487457     1.02780
Cr305      Cr  0.23649746  0.77687507  0.75274907     1.93740
Cr306      Cr  0.20109103  0.70668233  0.78472601     1.93210
Cr307      Cr  0.16822327  0.74270228  0.71552354     1.39100
O308        O  0.20177123  0.74231702  0.75113157    -1.22880
C309        C  0.31184327  0.20413041  0.53313258     0.03350
C310        C  0.35046509  0.19950602  0.53279525    -0.12800
C311        C  0.37038744  0.20023812  0.49942455     0.00850
C312        C  0.35107484  0.20440261  0.46598243    -0.11330
C313        C  0.31218622  0.20620572  0.46542694     0.03340
C314        C  0.29286174  0.20637134  0.49925535    -0.10750
H315        H  0.36523815  0.19582637  0.55863093     0.08930
H316        H  0.36648538  0.20739762  0.44046440     0.06460
H317        H  0.26300353  0.20895799  0.49927896     0.06310
O318        O  0.15246062  0.26382277  0.80206822    -0.85130
O319        O  0.22254862  0.24424531  0.82408379    -0.82180
C320        C  0.22121535  0.20915810  0.82679956     0.98330
O321        O  0.21874862  0.18929167  0.79820722    -0.82210
O322        O  0.20185228  0.16725654  0.72747389    -0.84860
C323        C  0.16684564  0.16501173  0.72905393     1.02860
O324        O  0.14752053  0.19384874  0.73180151    -0.77620
O325        O  0.12657934  0.26485563  0.74708256    -0.77810
C326        C  0.12399660  0.26593166  0.78213085     1.02810
O327        O  0.18106573  0.31714287  0.75030946    -0.85130
O328        O  0.25102320  0.29395963  0.76803265    -0.82190
C329        C  0.27899513  0.27344367  0.77045717     0.98350
O330        O  0.27566976  0.23850436  0.77119564    -0.82220
O331        O  0.25318969  0.22245596  0.70072877    -0.84830
C332        C  0.23337485  0.21974466  0.67222440     1.02820
O333        O  0.19838519  0.21874615  0.67509296    -0.77650
O334        O  0.18289370  0.28995865  0.69590013    -0.77790
C335        C  0.18174979  0.31899190  0.71518314     1.02780
Cr336      Cr  0.20175245  0.27719410  0.78363376     1.93740
Cr337      Cr  0.23492184  0.20689084  0.74943219     1.93210
Cr338      Cr  0.16632276  0.24189393  0.71497766     1.39100
O339        O  0.20092627  0.24203345  0.74946470    -1.22880
C340        C  0.15608484  0.52531837  0.36025042     0.03350
C341        C  0.15236112  0.52503404  0.39899467    -0.12800
C342        C  0.15222906  0.49143840  0.41871439     0.00850
C343        C  0.15549152  0.45791958  0.39897211    -0.11330
C344        C  0.15870863  0.45783696  0.36011086     0.03340
C345        C  0.15903169  0.49162676  0.34112128    -0.10750
H346        H  0.15086640  0.55105318  0.41396370     0.08930
H347        H  0.15656191  0.43192637  0.41385243     0.06460
H348        H  0.16271394  0.49178963  0.31132089     0.06310
O349        O  0.17927069  0.69248480  0.30372727    -0.85130
O350        O  0.19877765  0.76289473  0.32484777    -0.82180
C351        C  0.23391935  0.76398211  0.32704360     0.98330
O352        O  0.25364998  0.76131361  0.29845764    -0.82210
O353        O  0.27497490  0.74292574  0.22773197    -0.84860
C354        C  0.27798105  0.70787109  0.22932820     1.02860
O355        O  0.24952267  0.68811800  0.23244721    -0.77620
O356        O  0.17893167  0.66620959  0.24874418    -0.77810
C357        C  0.17710392  0.66395993  0.28378815     1.02810
O358        O  0.12561470  0.72000324  0.25202623    -0.85130
O359        O  0.14820540  0.79037621  0.26834437    -0.82190
C360        C  0.16789205  0.81892281  0.27083780     0.98350
O361        O  0.20282681  0.81609051  0.27198245    -0.82220
O362        O  0.21780944  0.79303450  0.20136397    -0.84830
C363        C  0.22071060  0.77314656  0.17292035     1.02820
O364        O  0.22289334  0.73819150  0.17590929    -0.77650
O365        O  0.15237763  0.72170347  0.19751298    -0.77790
C366        C  0.12353294  0.72032989  0.21693622     1.02780
Cr367      Cr  0.16561857  0.74151794  0.28481172     1.93740
Cr368      Cr  0.23484837  0.77570762  0.24983719     1.93210
Cr369      Cr  0.20091147  0.70600371  0.21619145     1.39100
O370        O  0.20062687  0.74076737  0.25063873    -1.22880
O371        O  0.27530314  0.24024067  0.22727295    -0.85130
O372        O  0.25399534  0.22105841  0.29709585    -0.82180
C373        C  0.23450199  0.22039168  0.32593945     0.98330
O374        O  0.19953344  0.22186592  0.32397625    -0.82210
O375        O  0.18404239  0.29181259  0.30112807    -0.84860
C376        C  0.18062142  0.32008633  0.28127246     1.02860
O377        O  0.17822298  0.31688149  0.24634411    -0.77620
O378        O  0.24900850  0.29527155  0.22844685    -0.77810
C379        C  0.27759579  0.27539179  0.22673591     1.02810
O380        O  0.21907828  0.18965948  0.19895319    -0.85130
O381        O  0.20228662  0.16715073  0.26883837    -0.82190
C382        C  0.16727473  0.16527883  0.27074594     0.98350
O383        O  0.14773409  0.19417054  0.27037286    -0.82220
O384        O  0.12650003  0.26472300  0.25166770    -0.84830
C385        C  0.12334440  0.26256105  0.21666961     1.02820
O386        O  0.15168605  0.25983662  0.19665140    -0.77650
O387        O  0.22237430  0.24459742  0.17362351    -0.77790
C388        C  0.22155758  0.20967071  0.17070182     1.02780
Cr389      Cr  0.23513156  0.20715032  0.24802831     1.93740
Cr390      Cr  0.16696937  0.24314783  0.28410293     1.93210
Cr391      Cr  0.20027913  0.27658494  0.21391316     1.39100
O392        O  0.20092905  0.24217867  0.24880218    -1.22880
C393        C  0.16006531  0.56067085  0.33978347    -0.05250
C394        C  0.18916981  0.56461358  0.31425173    -0.32680
C395        C  0.19411802  0.59770075  0.29487218     0.36570
C396        C  0.17072458  0.62798752  0.30176266    -0.05610
C397        C  0.14142516  0.62416722  0.32701286    -0.32580
C398        C  0.13554126  0.59056615  0.34542958     0.36480
H399        H  0.20850724  0.54209425  0.30964261     0.16850
O400        O  0.22302381  0.60075909  0.27059218    -0.60070
H401        H  0.12277483  0.64717714  0.33206107     0.16860
O402        O  0.10558637  0.58712999  0.36851007    -0.60170
H403        H  0.08591523  0.57582452  0.35301750     0.43860
H404        H  0.21345296  0.59121097  0.24666348     0.43810
C405        C  0.16433536  0.42275332  0.33930812    -0.05250
C406        C  0.19092984  0.39722129  0.35161234    -0.32680
C407        C  0.19736023  0.36432347  0.33212398     0.36570
C408        C  0.17713152  0.35644784  0.29964157    -0.05610
C409        C  0.15113359  0.38224633  0.28678870    -0.32580
C410        C  0.14431763  0.41497587  0.30658284     0.36480
H411        H  0.20706765  0.40295395  0.37626784     0.16850
O412        O  0.22348324  0.33997844  0.34512004    -0.60070
H413        H  0.13496571  0.37631260  0.26219489     0.16860
O414        O  0.11733334  0.43868158  0.29422108    -0.60170
H415        H  0.09474626  0.43184624  0.30824639     0.43860
H416        H  0.24639419  0.34584204  0.33117586     0.43810
C417        C  0.29147780  0.20822474  0.56876999    -0.05250
C418        C  0.25727988  0.19031578  0.57395081    -0.32680
C419        C  0.23730111  0.19468110  0.60699852     0.36570
C420        C  0.25180148  0.21662469  0.63583682    -0.05610
C421        C  0.28568752  0.23477325  0.63056501    -0.32580
C422        C  0.30533588  0.23102493  0.59740645     0.36480
H423        H  0.24615844  0.17251090  0.55247548     0.16850
O424        O  0.20461690  0.17593506  0.61147699    -0.60070
H425        H  0.29691768  0.25234389  0.65221015     0.16860
O426        O  0.33707872  0.25131468  0.59255931    -0.60170
H427        H  0.35562088  0.24016398  0.60946563     0.43860
H428        H  0.18545497  0.19215539  0.60036962     0.43810
C429        C  0.25306226  0.21631292  0.36202788    -0.05250
C430        C  0.28349345  0.19235915  0.36484203    -0.32680
C431        C  0.30254452  0.18831581  0.39832388     0.36570
C432        C  0.29182676  0.20924835  0.42966624    -0.05610
C433        C  0.26116787  0.23322569  0.42669315    -0.32580
C434        C  0.24150421  0.23637818  0.39340224     0.36480
H435        H  0.29220617  0.17615415  0.34105348     0.16850
O436        O  0.33034364  0.16244936  0.40060549    -0.60070
H437        H  0.25263732  0.25004295  0.45008475     0.16860
O438        O  0.21222676  0.26051383  0.39132184    -0.60170
H439        H  0.19055003  0.24629616  0.40032122     0.43860
H440        H  0.35071254  0.17205134  0.38488842     0.43810
C441        C  0.15427119  0.49291055  0.53858454    -0.05250
C442        C  0.13007895  0.46891970  0.51970401    -0.32680
C443        C  0.12885320  0.46815492  0.48078103     0.36570
C444        C  0.15196981  0.49177608  0.46000323    -0.05610
C445        C  0.17600621  0.51578460  0.47894586    -0.32580
C446        C  0.17728945  0.51654424  0.51770409     0.36480
H447        H  0.11189170  0.45081297  0.53518315     0.16850
O448        O  0.10398772  0.44530041  0.46334969    -0.60070
H449        H  0.19462803  0.53355928  0.46359068     0.16860
O450        O  0.20278122  0.53892403  0.53486594    -0.60170
H451        H  0.19334002  0.56454617  0.53176660     0.43860
H452        H  0.11379569  0.41985464  0.46670750     0.43810
C453        C  0.16828260  0.56130368  0.65889844    -0.05250
C454        C  0.18874508  0.59012740  0.64279406    -0.32680
C455        C  0.19346568  0.62390229  0.66117870     0.36570
C456        C  0.17826781  0.62923716  0.69680716    -0.05610
C457        C  0.15821751  0.60034794  0.71323241    -0.32580
C458        C  0.15291399  0.56668341  0.69451662     0.36480
H459        H  0.20147723  0.58641620  0.61585050     0.16850
O460        O  0.21398592  0.65112977  0.64447431    -0.60070
H461        H  0.14565837  0.60421212  0.74024327     0.16860
O462        O  0.13095640  0.54005835  0.71035868    -0.60170
H463        H  0.14514505  0.53068630  0.73191779     0.43860
H464        H  0.19685733  0.66328355  0.62679348     0.43810
C465        C  0.16984597  0.42268624  0.65796231    -0.05250
C466        C  0.19192335  0.39432795  0.64294978    -0.32680
C467        C  0.19662593  0.36078273  0.66168744     0.36570
C468        C  0.17928072  0.35509325  0.69622253    -0.05610
C469        C  0.15764016  0.38350349  0.71154834    -0.32580
C470        C  0.15259176  0.41698125  0.69263475     0.36480
H471        H  0.20591311  0.39827684  0.61670345     0.16850
O472        O  0.21829448  0.33373658  0.64595701    -0.60070
H473        H  0.14352440  0.37929761  0.73769957     0.16860
O474        O  0.12897670  0.44305775  0.70718555    -0.60170
H475        H  0.14165494  0.45294123  0.72948933     0.43860
H476        H  0.24317071  0.33708255  0.65708731     0.43810
C477        C  0.29032697  0.77642503  0.43126656    -0.05250
C478        C  0.30262475  0.79560139  0.39978240    -0.32680
C479        C  0.28429204  0.79194866  0.36582996     0.36570
C480        C  0.25241165  0.76961721  0.36303163    -0.05610
C481        C  0.23937043  0.75128812  0.39451908    -0.32580
C482        C  0.25823887  0.75409802  0.42832300     0.36480
H483        H  0.32670782  0.81338011  0.40136793     0.16850
O484        O  0.29721652  0.81111382  0.33570296    -0.60070
H485        H  0.21531197  0.73348426  0.39257884     0.16860
O486        O  0.24657556  0.73282513  0.45752692    -0.60170
H487        H  0.22236903  0.74341888  0.46511868     0.43860
H488        H  0.31798866  0.79601273  0.32587812     0.43810
C489        C  0.29213213  0.77500369  0.56993203    -0.05250
C490        C  0.30631519  0.79283139  0.60155179    -0.32680
C491        C  0.28842559  0.79002818  0.63578165     0.36570
C492        C  0.25529702  0.76970102  0.63886998    -0.05610
C493        C  0.24064377  0.75242164  0.60738593    -0.32580
C494        C  0.25892160  0.75448619  0.57323758     0.36480
H495        H  0.33137438  0.80916905  0.59980916     0.16850
O496        O  0.30355300  0.80741426  0.66603617    -0.60070
H497        H  0.21556284  0.73612172  0.60950847     0.16860
O498        O  0.24539211  0.73428377  0.54397776    -0.60170
H499        H  0.22148693  0.74609878  0.53736159     0.43860
H500        H  0.29152582  0.83210731  0.66699028     0.43810
C501        C  0.52066914  0.65071026  0.78474040    -0.05250
C502        C  0.52456587  0.68651167  0.79987312    -0.32680
C503        C  0.55724163  0.70682746  0.79499857     0.36570
C504        C  0.58711828  0.69112288  0.77541295    -0.05610
C505        C  0.58308341  0.65563027  0.75991796    -0.32580
C506        C  0.55028986  0.63556987  0.76419166     0.36480
H507        H  0.50229554  0.69872086  0.81590060     0.16850
O508        O  0.56021744  0.74122589  0.81094499    -0.60070
H509        H  0.60547268  0.64333210  0.74409433     0.16860
O510        O  0.54684281  0.60202789  0.74653701    -0.60170
H511        H  0.56394793  0.58501081  0.75965430     0.43860
H512        H  0.54943761  0.75857206  0.79261259     0.43810
C513        C  0.38229926  0.65093873  0.78374934    -0.05250
C514        C  0.35435422  0.63643337  0.76094812    -0.32680
C515        C  0.32090756  0.65532892  0.75616042     0.36570
C516        C  0.31481647  0.68951494  0.77424027    -0.05610
C517        C  0.34288740  0.70442645  0.79652418    -0.32580
C518        C  0.37634046  0.68536352  0.80155627     0.36480
H519        H  0.35855112  0.61043325  0.74646667     0.16850
O520        O  0.29431578  0.64004112  0.73371481    -0.60070
H521        H  0.33842909  0.73032695  0.81112721     0.16860
O522        O  0.40212621  0.69949872  0.82565840    -0.60170
H523        H  0.41232129  0.72176879  0.81327523     0.43860
H524        H  0.29802043  0.65166821  0.70913011     0.43810
C525        C  0.72313376  0.62901585  0.69948109    -0.05250
C526        C  0.74543223  0.60097049  0.71445385    -0.32680
C527        C  0.75068650  0.56747216  0.69537146     0.36570
C528        C  0.73303093  0.56149640  0.66094235    -0.05610
C529        C  0.71016602  0.58938785  0.64646653    -0.32580
C530        C  0.70543105  0.62296670  0.66517809     0.36480
H531        H  0.75985193  0.60548786  0.74039868     0.16850
O532        O  0.77476340  0.54167775  0.70950853    -0.60070
H533        H  0.69562546  0.58509209  0.62055444     0.16860
O534        O  0.68252665  0.64933244  0.65017960    -0.60170
H535        H  0.69758862  0.66195006  0.63101217     0.43860
H536        H  0.76238757  0.53155531  0.73182985     0.43810
C537        C  0.41186003  0.77652871  0.49915891    -0.05250
C538        C  0.43103953  0.80572347  0.48212486    -0.32680
C539        C  0.46983254  0.80689854  0.48261935     0.36570
C540        C  0.49006010  0.77840678  0.49997234    -0.05610
C541        C  0.47088882  0.74919551  0.51691902    -0.32580
C542        C  0.43213423  0.74798986  0.51638931     0.36480
H543        H  0.41583492  0.82801887  0.46900505     0.16850
O544        O  0.48772078  0.83627289  0.46658274    -0.60070
H545        H  0.48608915  0.72694477  0.53011736     0.16860
O546        O  0.41432152  0.71855653  0.53238958    -0.60170
H547        H  0.40986793  0.70080967  0.51184892     0.43860
H548        H  0.49177420  0.85425576  0.48700448     0.43810
C549        C  0.60977153  0.77337948  0.57018135    -0.05250
C550        C  0.59649641  0.74945068  0.59778883    -0.32680
C551        C  0.61520252  0.74556151  0.63144080     0.36570
C552        C  0.64812093  0.76541832  0.63797971    -0.05610
C553        C  0.66186943  0.78889864  0.61033836    -0.32580
C554        C  0.64267593  0.79348378  0.57692536     0.36480
H555        H  0.57167204  0.73329238  0.59314494     0.16850
O556        O  0.60112651  0.72205920  0.65772667    -0.60070
H557        H  0.68683811  0.80478940  0.61519902     0.16860
O558        O  0.65585096  0.81843895  0.55155463    -0.60170
H559        H  0.64219566  0.84175337  0.55663355     0.43860
H560        H  0.61411330  0.69816297  0.65371750     0.43810
C561        C  0.65102859  0.76878558  0.36427195    -0.05250
C562        C  0.62136904  0.79371941  0.36753890    -0.32680
C563        C  0.60162913  0.79706875  0.40076316     0.36570
C564        C  0.61096918  0.77461645  0.43131419    -0.05610
C565        C  0.64103091  0.74989254  0.42797903    -0.32580
C566        C  0.66128263  0.74726535  0.39496616     0.36480
H567        H  0.61360776  0.81093125  0.34421929     0.16850
O568        O  0.57439068  0.82348159  0.40360748    -0.60070
H569        H  0.64849308  0.73197615  0.45082832     0.16860
O570        O  0.68959675  0.72205186  0.39230328    -0.60170
H571        H  0.71182325  0.73528578  0.40151545     0.43860
H572        H  0.55401557  0.81478512  0.38735102     0.43810
C573        C  0.38305389  0.65248672  0.21559927    -0.05250
C574        C  0.35475388  0.63643915  0.23669653    -0.32680
C575        C  0.32069628  0.65416857  0.24125910     0.36570
C576        C  0.31451667  0.68946678  0.22579409    -0.05610
C577        C  0.34294236  0.70606307  0.20520269    -0.32580
C578        C  0.37686056  0.68775671  0.19967125     0.36480
H579        H  0.35894691  0.60990475  0.25002447     0.16850
O580        O  0.29376531  0.63682824  0.26149548    -0.60070
H581        H  0.33848054  0.73278868  0.19232638     0.16860
O582        O  0.40286810  0.70362102  0.17699397    -0.60170
H583        H  0.41155431  0.72604667  0.19034844     0.43860
H584        H  0.28586417  0.61565926  0.24582798     0.43810
C585        C  0.52128561  0.65367487  0.21792332    -0.05250
C586        C  0.54958212  0.64833105  0.19183535    -0.32680
C587        C  0.58277667  0.66790958  0.19468370     0.36570
C588        C  0.58799448  0.69336107  0.22380813    -0.05610
C589        C  0.55968081  0.69926534  0.24961607    -0.32580
C590        C  0.52662708  0.67923880  0.24715026     0.36480
H591        H  0.54584289  0.62905427  0.16907639     0.16850
O592        O  0.61010074  0.66192154  0.16893904    -0.60070
H593        H  0.56379084  0.71832109  0.27250299     0.16860
O594        O  0.50020361  0.68403554  0.27404394    -0.60170
H595        H  0.50480249  0.66402914  0.29225311     0.43860
H596        H  0.60609593  0.68104454  0.14967551     0.43810
C597        C  0.74136824  0.49312826  0.46124588    -0.05250
C598        C  0.71759408  0.51654300  0.48130816    -0.32680
C599        C  0.71777585  0.51682820  0.52007846     0.36570
C600        C  0.74239128  0.49373734  0.53981758    -0.05610
C601        C  0.76636925  0.47042185  0.51978623    -0.32580
C602        C  0.76614211  0.47013075  0.48089737     0.36480
H603        H  0.69802164  0.53408795  0.46684910     0.16850
O604        O  0.69295463  0.53910775  0.53837111    -0.60070
H605        H  0.78561772  0.45260751  0.53434775     0.16860
O606        O  0.79051833  0.44752251  0.46241663    -0.60170
H607        H  0.81225593  0.46336064  0.45696367     0.43860
H608        H  0.67138380  0.52298973  0.54365987     0.43810
C609        C  0.73297289  0.56150734  0.34038229    -0.05250
C610        C  0.75703648  0.59078462  0.34901154    -0.32680
C611        C  0.75477483  0.62445759  0.33007309     0.36570
C612        C  0.72834063  0.62926371  0.30179684    -0.05610
C613        C  0.70472556  0.59994132  0.29256259    -0.32580
C614        C  0.70645045  0.56645671  0.31199225     0.36480
H615        H  0.77781114  0.58749373  0.37040208     0.16850
O616        O  0.77866051  0.65251797  0.33930595    -0.60070
H617        H  0.68393878  0.60351393  0.27121514     0.16860
O618        O  0.68130343  0.53921320  0.30375763    -0.60170
H619        H  0.66100656  0.54248020  0.32198879     0.43860
H620        H  0.79963156  0.65009805  0.32171822     0.43810
C621        C  0.73276280  0.42313487  0.65943740    -0.05250
C622        C  0.70912813  0.39557460  0.64556903    -0.32680
C623        C  0.70422367  0.36229601  0.66463228     0.36570
C624        C  0.72297744  0.35606307  0.69833507    -0.05610
C625        C  0.74616132  0.38373544  0.71259591    -0.32580
C626        C  0.75154469  0.41684003  0.69320952     0.36480
H627        H  0.69397122  0.40001536  0.62005974     0.16850
O628        O  0.68090820  0.33604647  0.65007119    -0.60070
H629        H  0.76121797  0.37913868  0.73814688     0.16860
O630        O  0.77588723  0.44247085  0.70713325    -0.60170
H631        H  0.79968315  0.43737848  0.69438062     0.43860
H632        H  0.65677456  0.34023244  0.66251715     0.43810
C633        C  0.48986201  0.20046750  0.50114175    -0.05250
C634        C  0.47081557  0.17725638  0.47633014    -0.32680
C635        C  0.43198873  0.17661740  0.47551916     0.36570
C636        C  0.41151911  0.19937350  0.49990072    -0.05610
C637        C  0.43060476  0.22240158  0.52477348    -0.32580
C638        C  0.46930886  0.22306738  0.52559774     0.36480
H639        H  0.48610396  0.15934974  0.45764362     0.16850
O640        O  0.41431972  0.15262358  0.45187716    -0.60070
H641        H  0.41542082  0.24065850  0.54321044     0.16860
O642        O  0.48676787  0.24749321  0.54894830    -0.60170
H643        H  0.48273710  0.23762990  0.57425700     0.43860
H644        H  0.41781114  0.16313657  0.42675716     0.43810
C645        C  0.60977294  0.20937711  0.57010014    -0.05250
C646        C  0.64454295  0.19239436  0.57481071    -0.32680
C647        C  0.66448653  0.19674624  0.60782922     0.36570
C648        C  0.64932379  0.21760339  0.63716727    -0.05610
C649        C  0.61483212  0.23475830  0.63242459    -0.32580
C650        C  0.59524170  0.23113249  0.59925960     0.36480
H651        H  0.65619997  0.17536307  0.55296846     0.16850
O652        O  0.69790093  0.17910067  0.61171651    -0.60070
H653        H  0.60310772  0.25154765  0.65445202     0.16860
O654        O  0.56287949  0.25061202  0.59494845    -0.60170
H655        H  0.54490608  0.23893281  0.61210923     0.43860
H656        H  0.71635337  0.19620611  0.60076901     0.43810
C657        C  0.44958620  0.45196853  0.79798888    -0.05250
C658        C  0.47453564  0.47134458  0.77536873    -0.32680
C659        C  0.47575299  0.51007763  0.77535542     0.36570
C660        C  0.45159699  0.53067541  0.79825287    -0.05610
C661        C  0.42661665  0.51138622  0.82107244    -0.32580
C662        C  0.42539583  0.47240196  0.82100439     0.36480
H663        H  0.49274716  0.45635995  0.75673851     0.16850
O664        O  0.49909835  0.52754058  0.75103120    -0.60070
H665        H  0.40802073  0.52657664  0.83912913     0.16860
O666        O  0.40148678  0.45457601  0.84449022    -0.60170
H667        H  0.37645688  0.45879326  0.83401500     0.43860
H668        H  0.52440601  0.52310282  0.76073629     0.43810
C669        C  0.38123320  0.33196564  0.78083072    -0.05250
C670        C  0.35937654  0.32523687  0.81216885    -0.32680
C671        C  0.32669118  0.30469279  0.80917898     0.36570
C672        C  0.31538760  0.29094971  0.77450398    -0.05610
C673        C  0.33726655  0.29749540  0.74312588    -0.32580
C674        C  0.37014391  0.31785737  0.74615060     0.36480
H675        H  0.36782737  0.33576515  0.83900949     0.16850
O676        O  0.30556222  0.29870818  0.84014765    -0.60070
H677        H  0.32843281  0.28749051  0.71620576     0.16860
O678        O  0.39102919  0.32424367  0.71508362    -0.60170
H679        H  0.38238713  0.34849494  0.70553993     0.43860
H680        H  0.31615539  0.27615718  0.85166300     0.43810
C681        C  0.51940058  0.33269683  0.78236611    -0.05250
C682        C  0.52368632  0.29684803  0.79709965    -0.32680
C683        C  0.55694976  0.27719965  0.79286410     0.36570
C684        C  0.58705508  0.29361946  0.77433330    -0.05610
C685        C  0.58264870  0.32918060  0.75924427    -0.32580
C686        C  0.54927124  0.34856285  0.76283930     0.36480
H687        H  0.50129713  0.28409952  0.81240651     0.16850
O688        O  0.56019280  0.24270522  0.80839088    -0.60070
H689        H  0.60516913  0.34202960  0.74417693     0.16860
O690        O  0.54554838  0.38216309  0.74547902    -0.60170
H691        H  0.56195580  0.39943709  0.75920531     0.43860
H692        H  0.55013443  0.22536069  0.78957226     0.43810
C693        C  0.73130124  0.42302185  0.34106872    -0.05250
C694        C  0.75413463  0.39310757  0.35089138    -0.32680
C695        C  0.75143008  0.35911993  0.33241673     0.36570
C696        C  0.72620798  0.35480041  0.30298056    -0.05610
C697        C  0.70366371  0.38464538  0.29273291    -0.32580
C698        C  0.70571657  0.41847128  0.31176637     0.36480
H699        H  0.77430263  0.39610565  0.37290809     0.16850
O700        O  0.77446191  0.33061865  0.34249451    -0.60070
H701        H  0.68353298  0.38135081  0.27070902     0.16860
O702        O  0.68108138  0.44609692  0.30306183    -0.60170
H703        H  0.68854624  0.45501035  0.27818402     0.43860
H704        H  0.76237680  0.31894373  0.36419871     0.43810
C705        C  0.60977918  0.21028242  0.43108227    -0.05250
C706        C  0.63974314  0.23502395  0.42770490    -0.32680
C707        C  0.65960282  0.23783295  0.39446875     0.36570
C708        C  0.64900205  0.21650667  0.36365490    -0.05610
C709        C  0.61938578  0.19168061  0.36692836    -0.32580
C710        C  0.60008773  0.18810379  0.40032254     0.36480
H711        H  0.64749238  0.25271236  0.45070745     0.16850
O712        O  0.68794063  0.26293142  0.39177153    -0.60070
H713        H  0.61139842  0.17461381  0.34350564     0.16860
O714        O  0.57301403  0.16160358  0.40312770    -0.60170
H715        H  0.55241716  0.17037707  0.38722644     0.43860
H716        H  0.71026016  0.24950852  0.40045471     0.43810
C717        C  0.45126681  0.45398090  0.20784163    -0.05250
C718        C  0.47433978  0.47349287  0.23235194    -0.32680
C719        C  0.47574531  0.51229412  0.23207399     0.36570
C720        C  0.45380627  0.53260072  0.20688288    -0.05610
C721        C  0.43085766  0.51306368  0.18216562    -0.32580
C722        C  0.42938011  0.47416450  0.18256896     0.36480
H723        H  0.49090523  0.45857795  0.25243223     0.16850
O724        O  0.49700776  0.53013976  0.25806337    -0.60070
H725        H  0.41408012  0.52801433  0.16230164     0.16860
O726        O  0.40762599  0.45609085  0.15716049    -0.60170
H727        H  0.38182725  0.45961516  0.16591796     0.43860
H728        H  0.52302279  0.52593799  0.25028348     0.43810
C729        C  0.38069399  0.33361338  0.21553083    -0.05250
C730        C  0.37757227  0.30372085  0.24041407    -0.32680
C731        C  0.34456823  0.28362655  0.24348115     0.36570
C732        C  0.31364500  0.29387851  0.22227024    -0.05610
C733        C  0.31662950  0.32348032  0.19732051    -0.32580
C734        C  0.34984539  0.34305212  0.19352108     0.36480
H735        H  0.40063523  0.29619809  0.25804049     0.16850
O736        O  0.34219949  0.25540040  0.26874455    -0.60070
H737        H  0.29313089  0.33124375  0.18034901     0.16860
O738        O  0.35238869  0.37013780  0.16701164    -0.60170
H739        H  0.33654231  0.39075674  0.17598476     0.43860
H740        H  0.35134526  0.23309887  0.25548648     0.43810
C741        C  0.51881500  0.33311219  0.21796085    -0.05250
C742        C  0.52675570  0.30279135  0.19474642    -0.32680
C743        C  0.55965945  0.28262805  0.19899936     0.36570
C744        C  0.58517911  0.29288774  0.22661970    -0.05610
C745        C  0.57705185  0.32286545  0.25005024    -0.32580
C746        C  0.54407771  0.34277383  0.24607774     0.36480
H747        H  0.50764473  0.29511465  0.17291079     0.16850
O748        O  0.56764469  0.25447753  0.17466068    -0.60070
H749        H  0.59634808  0.33081142  0.27164245     0.16860
O750        O  0.53600842  0.37061835  0.27076955    -0.60170
H751        H  0.55196106  0.39172364  0.26346457     0.43860
H752        H  0.55587356  0.23213219  0.18537702     0.43810
C753        C  0.14935827  0.85536113  0.27342651    -0.05250
C754        C  0.11576582  0.86063897  0.25465997    -0.32680
C755        C  0.09600776  0.89384241  0.25800445     0.36570
C756        C  0.10940528  0.92248239  0.28107480    -0.05610
C757        C  0.14331940  0.91726218  0.29959256    -0.32580
C758        C  0.16344393  0.88423815  0.29556996     0.36480
H759        H  0.10486455  0.83895988  0.23692735     0.16850
O760        O  0.06465332  0.89871679  0.23709048    -0.60070
H761        H  0.15411180  0.93869861  0.31764306     0.16860
O762        O  0.19583074  0.87980117  0.31488132    -0.60170
H763        H  0.21525590  0.89079773  0.29891599     0.43860
H764        H  0.04598739  0.88161287  0.24770385     0.43810
C765        C  0.10981104  0.06158895  0.28198828    -0.05250
C766        C  0.13985846  0.06478658  0.25731157    -0.32680
C767        C  0.15957993  0.09803016  0.25414337     0.36570
C768        C  0.14873450  0.12916760  0.27496286    -0.05610
C769        C  0.11901965  0.12608904  0.29976041    -0.32580
C770        C  0.09989892  0.09262351  0.30376727     0.36480
H771        H  0.14778951  0.04162302  0.23989058     0.16850
O772        O  0.18813437  0.10035094  0.22921151    -0.60070
H773        H  0.11089774  0.14966182  0.31657862     0.16860
O774        O  0.07281770  0.09003676  0.33032568    -0.60170
H775        H  0.05237302  0.10621973  0.32168510     0.43860
H776        H  0.21020055  0.09113509  0.24269147     0.43810
C777        C  0.75233051  0.85554926  0.72394311    -0.05250
C778        C  0.73870321  0.88713124  0.74195872    -0.32680
C779        C  0.75744521  0.92102339  0.73945021     0.36570
C780        C  0.79001372  0.92387760  0.71779182    -0.05610
C781        C  0.80296493  0.89222653  0.69909731    -0.32580
C782        C  0.78467754  0.85832061  0.70229519     0.36480
H783        H  0.71422887  0.88522369  0.75921592     0.16850
O784        O  0.74512244  0.95040241  0.76031439    -0.60070
H785        H  0.82742066  0.89368124  0.68180029     0.16860
O786        O  0.79871814  0.82799967  0.68405972    -0.60170
H787        H  0.78558139  0.82731716  0.65994546     0.43860
H788        H  0.72121220  0.95790537  0.74907826     0.43810
C789        C  0.79134716  0.06220893  0.71454832    -0.05250
C790        C  0.76224008  0.06556352  0.74028211    -0.32680
C791        C  0.74293765  0.09892117  0.74436927     0.36570
C792        C  0.75312185  0.12979827  0.72312500    -0.05610
C793        C  0.78182407  0.12651040  0.69711697    -0.32580
C794        C  0.80073504  0.09293928  0.69248006     0.36480
H795        H  0.75490263  0.04241965  0.75787239     0.16850
O796        O  0.71564439  0.10168680  0.77065926    -0.60070
H797        H  0.78937930  0.15000375  0.68007537     0.16860
O798        O  0.82720707  0.08995274  0.66534490    -0.60170
H799        H  0.84831869  0.10523327  0.67402455     0.43860
H800        H  0.69286063  0.09265372  0.75827860     0.43810
C801        C  0.98956115  0.99223376  0.71229927    -0.05250
C802        C  0.97025603  0.97262196  0.73975806    -0.32680
C803        C  0.93151157  0.97262259  0.74069003     0.36570
C804        C  0.91125537  0.99217388  0.71367362    -0.05610
C805        C  0.93051735  0.01184946  0.68623624    -0.32580
C806        C  0.96928562  0.01179002  0.68525254     0.36480
H807        H  0.98531179  0.95776637  0.76102555     0.16850
O808        O  0.91374321  0.95399957  0.76857746    -0.60070
H809        H  0.91539265  0.02685296  0.66511199     0.16860
O810        O  0.98704994  0.03045854  0.65738731    -0.60170
H811        H  0.99145359  0.01167894  0.63776277     0.43860
H812        H  0.90900575  0.97288938  0.78801478     0.43810
C813        C  0.11018723  0.92280840  0.71913796    -0.05250
C814        C  0.14199239  0.92077670  0.74170964    -0.32680
C815        C  0.16223923  0.88780691  0.74483879     0.36570
C816        C  0.15040291  0.85589835  0.72590868    -0.05610
C817        C  0.11893265  0.85784331  0.70322385    -0.32580
C818        C  0.09911536  0.89090331  0.69937647     0.36480
H819        H  0.15096011  0.94465176  0.75754666     0.16850
O820        O  0.19298052  0.88688878  0.76711745    -0.60070
H821        H  0.10987327  0.83362672  0.68790505     0.16860
O822        O  0.07018780  0.89219021  0.67474940    -0.60170
H823        H  0.05060764  0.87624311  0.68551476     0.43860
H824        H  0.18384058  0.87891160  0.79174933     0.43810
C825        C  0.14803341  0.12892426  0.72580716    -0.05250
C826        C  0.16184336  0.10176496  0.70159112    -0.32680
C827        C  0.14279002  0.06831246  0.69629771     0.36570
C828        C  0.10964394  0.06149274  0.71588179    -0.05610
C829        C  0.09627593  0.08862052  0.74041998    -0.32580
C830        C  0.11488378  0.12218730  0.74513494     0.36480
H831        H  0.18686323  0.10693263  0.68587165     0.16850
O832        O  0.15566221  0.04338634  0.67054043    -0.60070
H833        H  0.07140916  0.08366980  0.75643791     0.16860
O834        O  0.10112559  0.14777860  0.76973369    -0.60170
H835        H  0.07872404  0.15803687  0.75768133     0.43860
H836        H  0.17912188  0.03353874  0.68088257     0.43810
C837        C  0.91104768  0.99333687  0.29002862    -0.05250
C838        C  0.93052629  0.97184456  0.31594367    -0.32680
C839        C  0.96934018  0.97161074  0.31648180     0.36570
C840        C  0.98941620  0.99262524  0.29040758    -0.05610
C841        C  0.96985980  0.01402719  0.26449749    -0.32580
C842        C  0.93111068  0.01462304  0.26423502     0.36480
H843        H  0.91555550  0.95550626  0.33613473     0.16850
O844        O  0.98732210  0.95106248  0.34286204    -0.60070
H845        H  0.98469655  0.02987254  0.24382044     0.16860
O846        O  0.91307850  0.03447765  0.23733094    -0.60170
H847        H  0.91598679  0.06084783  0.24455576     0.43860
H848        H  0.99218394  0.96855276  0.36352705     0.43810
C849        C  0.75265001  0.85657023  0.27498079    -0.05250
C850        C  0.77662802  0.86818574  0.24679646    -0.32680
C851        C  0.79606439  0.90148113  0.25017792     0.36570
C852        C  0.79191020  0.92330013  0.28225452    -0.05610
C853        C  0.76770321  0.91181724  0.31036665    -0.32580
C854        C  0.74807133  0.87857291  0.30687233     0.36480
H855        H  0.78017379  0.85141520  0.22208502     0.16850
O856        O  0.81807371  0.91316927  0.22153223    -0.60070
H857        H  0.76442719  0.92845236  0.33519507     0.16860
O858        O  0.72614766  0.86678527  0.33554256    -0.60170
H859        H  0.70138343  0.87754656  0.33057817     0.43860
H860        H  0.84206890  0.90031252  0.22513272     0.43810
C861        C  0.79001093  0.06098320  0.28131908    -0.05250
C862        C  0.75780568  0.06739395  0.30230580    -0.32680
C863        C  0.73747072  0.10021300  0.29808052     0.36570
C864        C  0.74954297  0.12733356  0.27289437    -0.05610
C865        C  0.78129781  0.12066674  0.25152615    -0.32580
C866        C  0.80133543  0.08776433  0.25534191     0.36480
H867        H  0.74872052  0.04713957  0.32245278     0.16850
O868        O  0.70721263  0.10643345  0.32020529    -0.60070
H869        H  0.79061327  0.14109898  0.23164115     0.16860
O870        O  0.83096163  0.08128848  0.23239446    -0.60170
H871        H  0.85066905  0.09841311  0.24095159     0.43860
H872        H  0.68618891  0.09470859  0.30698482     0.43810
C873        C  0.81229919  0.26732190  0.19713264    -0.05250
C874        C  0.81613765  0.29354114  0.16877743    -0.32680
C875        C  0.84963324  0.29735748  0.14965812     0.36570
C876        C  0.87984537  0.27413027  0.15829577    -0.05610
C877        C  0.87578075  0.24775038  0.18669970    -0.32580
C878        C  0.84250255  0.24457523  0.20633757     0.36480
H879        H  0.79319755  0.31161151  0.16181688     0.16850
O880        O  0.85315609  0.32509872  0.12395491    -0.60070
H881        H  0.89836230  0.22919390  0.19347367     0.16860
O882        O  0.83917106  0.21791696  0.23315169    -0.60170
H883        H  0.84893471  0.22950988  0.25608655     0.43860
H884        H  0.83760860  0.31740422  0.10263675     0.43810
C885        C  0.01867005  0.27443817  0.16093628    -0.05250
C886        C  0.04654619  0.25163638  0.14614155    -0.32680
C887        C  0.08037153  0.24720209  0.16431275     0.36570
C888        C  0.08675992  0.26503411  0.19851066    -0.05610
C889        C  0.05870802  0.28715242  0.21392453    -0.32580
C890        C  0.02493580  0.29216719  0.19532783     0.36480
H891        H  0.04210579  0.23697950  0.12028324     0.16850
O892        O  0.10668504  0.22448023  0.14884360    -0.60070
H893        H  0.06342784  0.30165121  0.23982356     0.16860
O894        O  0.99922580  0.31616690  0.20985660    -0.60170
H895        H  0.98959878  0.30386003  0.23242760     0.43860
H896        H  0.11888360  0.23963546  0.12948502     0.43810
C897        C  0.88187866  0.71089656  0.84012767    -0.05250
C898        C  0.85388592  0.73359391  0.85485254    -0.32680
C899        C  0.82012567  0.73791727  0.83649077     0.36570
C900        C  0.81378464  0.71965283  0.80248505    -0.05610
C901        C  0.84176441  0.69728953  0.78741468    -0.32580
C902        C  0.87550149  0.69255454  0.80605349     0.36480
H903        H  0.85829910  0.74846384  0.88058576     0.16850
O904        O  0.79349477  0.76017301  0.85208924    -0.60070
H905        H  0.83703447  0.68242683  0.76172250     0.16860
O906        O  0.90114391  0.66825534  0.79187987    -0.60170
H907        H  0.91034767  0.67986310  0.76876646     0.43860
H908        H  0.79690857  0.78480001  0.84046969     0.43810
C909        C  0.02024320  0.71088831  0.83814482    -0.05250
C910        C  0.04807704  0.68434560  0.84377008    -0.32680
C911        C  0.08159768  0.68654636  0.82460173     0.36570
C912        C  0.08765874  0.71549300  0.79927307    -0.05610
C913        C  0.05972184  0.74162611  0.79293176    -0.32580
C914        C  0.02632812  0.73978944  0.81253409     0.36480
H915        H  0.04376632  0.66178933  0.86304956     0.16850
O916        O  0.10840030  0.66034076  0.83088971    -0.60070
H917        H  0.06440156  0.76432124  0.77389511     0.16860
O918        O  0.00035631  0.76704473  0.80736205    -0.60170
H919        H  0.00498147  0.78536550  0.82735549     0.43860
H920        H  0.10504353  0.64161821  0.81100877     0.43810
C921        C  0.23263549  0.15030353  0.92995287    -0.05250
C922        C  0.24941719  0.18519137  0.92533290    -0.32680
C923        C  0.24478209  0.20545344  0.89257673     0.36570
C924        C  0.22392526  0.19053112  0.86319363    -0.05610
C925        C  0.20683885  0.15592804  0.86788131    -0.32580
C926        C  0.21070357  0.13602385  0.90090197     0.36480
H927        H  0.26654207  0.19674191  0.94710940     0.16850
O928        O  0.26222156  0.23895814  0.88899346    -0.60070
H929        H  0.19004094  0.14429382  0.84586831     0.16860
O930        O  0.19132840  0.10362821  0.90518041    -0.60170
H931        H  0.20312909  0.08560240  0.88805523     0.43860
H932        H  0.24494047  0.25732953  0.89995067     0.43810
C933        C  0.22514779  0.19176032  0.13438787    -0.05250
C934        C  0.19433801  0.17429224  0.11855144    -0.32680
C935        C  0.19786557  0.15446434  0.08536235     0.36570
C936        C  0.23258861  0.15168132  0.06795966    -0.05610
C937        C  0.26339328  0.16928185  0.08371735    -0.32580
C938        C  0.25980958  0.18933280  0.11680381     0.36480
H939        H  0.16762002  0.17581318  0.13211534     0.16850
O940        O  0.16722398  0.13826318  0.06985656    -0.60070
H941        H  0.29024696  0.16714574  0.07049949     0.16860
O942        O  0.29057295  0.20495832  0.13267123    -0.60170
H943        H  0.29113197  0.23078040  0.12338736     0.43860
H944        H  0.16663045  0.11278360  0.08003941     0.43810
C945        C  0.66913853  0.83472707  0.93188572    -0.05250
C946        C  0.65073218  0.80075112  0.92677056    -0.32680
C947        C  0.65478716  0.78051457  0.89380719     0.36570
C948        C  0.67708621  0.79445417  0.86506937    -0.05610
C949        C  0.69578563  0.82812033  0.87032655    -0.32580
C950        C  0.69218486  0.84809718  0.90337960     0.36480
H951        H  0.63278287  0.79004138  0.94826944     0.16850
O952        O  0.63534856  0.74820660  0.88926388    -0.60070
H953        H  0.71356237  0.83895127  0.84872301     0.16860
O954        O  0.71275883  0.87967956  0.90826260    -0.60170
H955        H  0.70165026  0.89834895  0.89148295     0.43860
H956        H  0.65105186  0.72871468  0.90053695     0.43810
C957        C  0.67174461  0.83453895  0.07041128    -0.05250
C958        C  0.65239917  0.80115837  0.07577717    -0.32680
C959        C  0.65612228  0.78105706  0.10873649     0.36570
C960        C  0.67899151  0.79456358  0.13728492    -0.05610
C961        C  0.69867796  0.82759819  0.13179215    -0.32580
C962        C  0.69546018  0.84740461  0.09866365     0.36480
H963        H  0.63384288  0.79088437  0.05453741     0.16850
O964        O  0.63571903  0.74941120  0.11353200    -0.60070
H965        H  0.71690486  0.83803941  0.15325700     0.16860
O966        O  0.71692845  0.87831219  0.09348049    -0.60170
H967        H  0.70674818  0.89735971  0.11053956     0.43860
H968        H  0.65073165  0.72933532  0.10222030     0.43810
C969        C  0.95181321  0.28549087  0.96106296    -0.05250
C970        C  0.97400810  0.26008722  0.98043065    -0.32680
C971        C  0.97434112  0.25937733  0.01924001     0.36570
C972        C  0.95195278  0.28416117  0.03959164    -0.05610
C973        C  0.92981296  0.30968958  0.02031043    -0.32580
C974        C  0.92986997  0.31072417  0.98145136     0.36480
H975        H  0.99061553  0.24004986  0.96540156     0.16850
O976        O  0.99500231  0.23289835  0.03700937    -0.60070
H977        H  0.91266079  0.32915798  0.03548263     0.16860
O978        O  0.90860090  0.33672490  0.96373968    -0.60170
H979        H  0.92546817  0.35787440  0.95910732     0.43860
H980        H  0.02106767  0.24120820  0.03470699     0.43810
C981        C  0.88147695  0.27594174  0.84115835    -0.05250
C982        C  0.87577689  0.29465793  0.80743051    -0.32680
C983        C  0.84285867  0.29018704  0.78733351     0.36570
C984        C  0.81454919  0.26738396  0.80126811    -0.05610
C985        C  0.82028967  0.24844536  0.83468960    -0.32580
C986        C  0.85341546  0.25222957  0.85440548     0.36480
H987        H  0.89675533  0.31320052  0.79675726     0.16850
O988        O  0.83792886  0.30970182  0.75514677    -0.60070
H989        H  0.79904148  0.23024067  0.84548158     0.16860
O990        O  0.85881470  0.23113105  0.88554114    -0.60170
H991        H  0.84157314  0.24128861  0.90441761     0.43860
H992        H  0.84929231  0.29415764  0.73549712     0.43810
C993        C  0.02037080  0.27831949  0.83974659    -0.05250
C994        C  0.02317871  0.25457761  0.80878714    -0.32680
C995        C  0.05624109  0.25153954  0.78871073     0.36570
C996        C  0.08777179  0.27111223  0.80031733    -0.05610
C997        C  0.08506372  0.29517191  0.83077847    -0.32580
C998        C  0.05166308  0.29938661  0.85006944     0.36480
H999        H  0.99985468  0.23774764  0.80034749     0.16850
O1000       O  0.05793488  0.22793620  0.75893986    -0.60070
H1001       H  0.10891350  0.31120037  0.83941516     0.16860
O1002       O  0.04943584  0.32544783  0.87776258    -0.60170
H1003       H  0.06576609  0.31632484  0.89786695     0.43860
H1004       H  0.04920727  0.24272836  0.73754264     0.43810
C1005       C  0.95245899  0.70033450  0.03805755    -0.05250
C1006       C  0.97594101  0.72455111  0.01881835    -0.32680
C1007       C  0.97624221  0.72545609  0.98005113     0.36570
C1008       C  0.95320907  0.70140074  0.95950674    -0.05610
C1009       C  0.92992384  0.67690498  0.97877064    -0.32580
C1010       C  0.92949341  0.67617515  0.01763186     0.36480
H1011       H  0.99346664  0.74365622  0.03395476     0.16850
O1012       O  0.99842066  0.75082054  0.96259970    -0.60070
H1013       H  0.91217548  0.65802640  0.96362281     0.16860
O1014       O  0.90671652  0.65152698  0.03533749    -0.60170
H1015       H  0.92244970  0.62961448  0.04050210     0.43860
H1016       H  0.98229015  0.77258081  0.95805254     0.43810
C1017       C  0.81460968  0.71635646  0.19766790    -0.05250
C1018       C  0.81712727  0.69237189  0.16712630    -0.32680
C1019       C  0.85035243  0.68830468  0.14758912     0.36570
C1020       C  0.88170290  0.70919743  0.15795675    -0.05610
C1021       C  0.87896810  0.73326865  0.18866555    -0.32580
C1022       C  0.84598159  0.73644052  0.20880188     0.36480
H1023       H  0.79330224  0.67620096  0.15868738     0.16850
O1024       O  0.85238746  0.66246441  0.11968039    -0.60070
H1025       H  0.90234662  0.75012404  0.19691404     0.16860
O1026       O  0.84416873  0.76064068  0.23811609    -0.60170
H1027       H  0.85325687  0.74640425  0.25974643     0.43860
H1028       H  0.83663877  0.67223020  0.09941507     0.43810
C1029       C  0.02036353  0.70767818  0.15904390    -0.05250
C1030       C  0.04786115  0.73153459  0.14545577    -0.32680
C1031       C  0.08114121  0.73639423  0.16451666     0.36570
C1032       C  0.08744575  0.71752942  0.19806340    -0.05610
C1033       C  0.05986221  0.69417031  0.21215435    -0.32580
C1034       C  0.02675643  0.68871057  0.19267038     0.36480
H1035       H  0.04339089  0.74689646  0.12008904     0.16850
O1036       O  0.10731121  0.75983644  0.15013834    -0.60070
H1037       H  0.06454616  0.67904837  0.23763532     0.16860
O1038       O  0.00133762  0.66405906  0.20629834    -0.60170
H1039       H  0.00674541  0.64031832  0.19349911     0.43860
H1040       H  0.10312502  0.78392961  0.16274454     0.43810
C1041       C  0.66007930  0.03244883  0.00033727    -0.05250
C1042       C  0.62873241  0.01319213  0.98775684    -0.32680
C1043       C  0.62775829  0.97432441  0.98854450     0.36570
C1044       C  0.65852333  0.95431037  0.00170907    -0.05610
C1045       C  0.68979800  0.97361817  0.01425497    -0.32580
C1046       C  0.69081157  0.01236223  0.01341053     0.36480
H1047       H  0.60487725  0.02836485  0.97771032     0.16850
O1048       O  0.59661288  0.95615877  0.97666931    -0.60070
H1049       H  0.71377866  0.95850858  0.02411779     0.16860
O1050       O  0.72217416  0.03039323  0.02493358    -0.60170
H1051       H  0.73684352  0.03450003  0.00207968     0.43860
H1052       H  0.58163534  0.95213225  0.99933645     0.43810
C1053       C  0.67767566  0.19154322  0.86399669    -0.05250
C1054       C  0.65069083  0.20312728  0.88945193    -0.32680
C1055       C  0.64476424  0.18325832  0.92221576     0.36570
C1056       C  0.66655533  0.15178923  0.93021070    -0.05610
C1057       C  0.69385971  0.14062009  0.90488001    -0.32580
C1058       C  0.69950949  0.16021030  0.87204006     0.36480
H1059       H  0.63329398  0.22680846  0.88329641     0.16850
O1060       O  0.61714484  0.19437127  0.94585542    -0.60070
H1061       H  0.71129446  0.11692349  0.91086353     0.16860
O1062       O  0.72660587  0.14860130  0.84800837    -0.60170
H1063       H  0.74859048  0.16388765  0.85410579     0.43860
H1064       H  0.59531217  0.17922495  0.93892846     0.43810
C1065       C  0.67278148  0.19142552  0.13670765    -0.05250
C1066       C  0.69520830  0.20183913  0.10687594    -0.32680
C1067       C  0.69325359  0.18275503  0.07303772     0.36570
C1068       C  0.66792376  0.15324763  0.06854031    -0.05610
C1069       C  0.64502007  0.14348186  0.09837711    -0.32580
C1070       C  0.64760629  0.16200329  0.13232710     0.36480
H1071       H  0.71526229  0.22389703  0.11024411     0.16850
O1072       O  0.71782882  0.19152664  0.04542144    -0.60070
H1073       H  0.62498352  0.12136517  0.09538784     0.16860
O1074       O  0.62464039  0.15185860  0.16083143    -0.60170
H1075       H  0.63664627  0.12999789  0.17230791     0.43860
H1076       H  0.71023503  0.21636374  0.03649511     0.43810
C1077       C  0.24496041  0.03085387  0.00102860    -0.05250
C1078       C  0.21919494  0.01174708  0.02294750    -0.32680
C1079       C  0.21802643  0.97301674  0.02315987     0.36570
C1080       C  0.24317580  0.95231662  0.00148174    -0.05610
C1081       C  0.26911944  0.97132247  0.97960959    -0.32580
C1082       C  0.27030881  0.01023036  0.97945684     0.36480
H1083       H  0.19910943  0.02696925  0.03931051     0.16850
O1084       O  0.19143171  0.95569229  0.04396962    -0.60070
H1085       H  0.28877705  0.95593150  0.96289435     0.16860
O1086       O  0.29656570  0.02775626  0.95841026    -0.60170
H1087       H  0.31752170  0.03244067  0.97552993     0.43860
H1088       H  0.17066909  0.95097273  0.02662536     0.43810
C1089       C  0.23139821  0.83186677  0.93223896    -0.05250
C1090       C  0.25901302  0.83527748  0.90517112    -0.32680
C1091       C  0.25695004  0.81495156  0.87221420     0.36570
C1092       C  0.22698954  0.79083166  0.86594575    -0.05610
C1093       C  0.19955973  0.78698620  0.89303452    -0.32580
C1094       C  0.20139111  0.80760720  0.92589944     0.36480
H1095       H  0.28237621  0.85351803  0.90975659     0.16850
O1096       O  0.28423607  0.81898994  0.84609143    -0.60070
H1097       H  0.17600791  0.76908335  0.88807529     0.16860
O1098       O  0.17324954  0.80459085  0.95123077    -0.60170
H1099       H  0.15620755  0.82538811  0.94562105     0.43860
H1100       H  0.30165576  0.79821943  0.85055297     0.43810
C1101       C  0.23079352  0.83215285  0.07019472    -0.05250
C1102       C  0.24935234  0.79818615  0.07503948    -0.32680
C1103       C  0.24528354  0.77778471  0.10775616     0.36570
C1104       C  0.22291789  0.79160778  0.13657057    -0.05610
C1105       C  0.20394438  0.82519509  0.13153311    -0.32580
C1106       C  0.20751769  0.84531401  0.09868393     0.36480
H1107       H  0.26748719  0.78762347  0.05354795     0.16850
O1108       O  0.26482958  0.74547550  0.11202093    -0.60070
H1109       H  0.18607404  0.83590803  0.15319743     0.16860
O1110       O  0.18679157  0.87685941  0.09400381    -0.60170
H1111       H  0.19787329  0.89556561  0.11084708     0.43860
H1112       H  0.24911769  0.72598813  0.10068976     0.43810
loop_ 
_geom_bond_atom_site_label_1 
_geom_bond_atom_site_label_2 
_geom_bond_distance 
_geom_bond_site_symmetry_2 
_ccdc_geom_bond_type 
C1            C2   1.407       .  A
C1            C6   1.400   1_556  A
C1         C1089   1.480       .  S
C2            C3   1.407   1_556  A
C2            H7   1.084       .  S
C3            C4   1.406       .  A
C3         C1080   1.489       .  S
C4            C5   1.406       .  A
C4            H8   1.083       .  S
C5            C6   1.400       .  A
C5         C1101   1.485       .  S
C6            H9   1.084       .  S
C10          C11   1.402   1_554  A
C10          C15   1.407       .  A
C10        C1068   1.486       .  S
C11          C12   1.402       .  A
C11          H16   1.082       .  S
C12          C13   1.406       .  A
C12        C1056   1.481       .  S
C13          C14   1.403       .  A
C13          H17   1.084       .  S
C14          C15   1.403   1_556  A
C14        C1041   1.480   1_556  S
C15          H18   1.084       .  S
C19          C20   1.403       .  A
C19          C24   1.406       .  A
C19        C1029   1.487   1_655  S
C20          C21   1.405       .  A
C20          H25   1.082       .  S
C21          C22   1.408       .  A
C21        C1020   1.490       .  S
C22          C23   1.404       .  A
C22          H26   1.082       .  S
C23          C24   1.404       .  A
C23        C1005   1.488       .  S
C24          H27   1.084   1_655  S
C28          C29   1.405       .  A
C28          C33   1.407       .  A
C28         C981   1.491       .  S
C29          C30   1.406       .  A
C29          H34   1.083       .  S
C30          C31   1.408       .  A
C30         C993   1.494   1_655  S
C31          C32   1.405       .  A
C31          H35   1.082   1_655  S
C32          C33   1.404       .  A
C32         C969   1.490       .  S
C33          H36   1.082       .  S
C37          C38   1.407       .  A
C37          C42   1.404   1_556  A
C37         C945   1.486       .  S
C38          C39   1.402   1_556  A
C38          H43   1.083       .  S
C39          C40   1.402       .  A
C39        C1044   1.480       .  S
C40          C41   1.407       .  A
C40          H44   1.083       .  S
C41          C42   1.404       .  A
C41         C957   1.487       .  S
C42          H45   1.084       .  S
C46          C47   1.401       .  A
C46          C51   1.398   1_554  A
C46         C936   1.472       .  S
C47          C48   1.406       .  A
C47          H52   1.084       .  S
C48          C49   1.408   1_554  A
C48        C1077   1.490       .  S
C49          C50   1.411       .  A
C49          H53   1.082       .  S
C50          C51   1.404       .  A
C50         C921   1.491       .  S
C51          H54   1.084       .  S
C55          C56   1.402       .  A
C55          C60   1.409       .  A
C55         C897   1.488       .  S
C56          C57   1.400       .  A
C56          H61   1.082       .  S
C57          C58   1.404       .  A
C57         C909   1.481   1_655  S
C58          C59   1.406       .  A
C58          H62   1.083   1_655  S
C59          C60   1.407       .  A
C59        C1008   1.491       .  S
C60          H63   1.083       .  S
C64          C65   1.407       .  A
C64          C69   1.403       .  A
C64         C885   1.489   1_655  S
C65          C66   1.404       .  A
C65          H70   1.083   1_655  S
C66          C67   1.404       .  A
C66         C972   1.488       .  S
C67          C68   1.408       .  A
C67          H71   1.083       .  S
C68          C69   1.405       .  A
C68         C876   1.488       .  S
C69          H72   1.082       .  S
C73          C74   1.399       .  A
C73          C78   1.403       .  A
C73         C852   1.472       .  S
C74          C75   1.401   1_565  A
C74          H79   1.084       .  S
C75          C76   1.406       .  A
C75         C861   1.483       .  S
C76          C77   1.405   1_545  A
C76          H80   1.083       .  S
C77          C78   1.404       .  A
C77         C837   1.486       .  S
C78          H81   1.084       .  S
C82          C83   1.402   1_545  A
C82          C87   1.406       .  A
C82         C828   1.486       .  S
C83          C84   1.404       .  A
C83          H88   1.082       .  S
C84          C85   1.408       .  A
C84         C813   1.491       .  S
C85          C86   1.404       .  A
C85          H89   1.082       .  S
C86          C87   1.403   1_565  A
C86         C801   1.487   1_455  S
C87          H90   1.084       .  S
C91          C92   1.409       .  A
C91          C96   1.403       .  A
C91         C780   1.491       .  S
C92          C93   1.405       .  A
C92          H97   1.083       .  S
C93          C94   1.403   1_565  A
C93         C804   1.485       .  S
C94          C95   1.404       .  A
C94          H98   1.083       .  S
C95          C96   1.401   1_545  A
C95         C789   1.483       .  S
C96          H99   1.082       .  S
C100        C101   1.406       .  A
C100        C105   1.406   1_545  A
C100        C765   1.491       .  S
C101        C102   1.404   1_545  A
C101        H106   1.082       .  S
C102        C103   1.404       .  A
C102        C840   1.488   1_455  S
C103        C104   1.407       .  A
C103        H107   1.082       .  S
C104        C105   1.405       .  A
C104        C756   1.491       .  S
C105        H108   1.083       .  S
C109        C110   1.400       .  A
C109        C114   1.404       .  A
C109        C741   1.481       .  S
C110        C111   1.404       .  A
C110        H115   1.084       .  S
C111        C112   1.410       .  A
C111        C729   1.490       .  S
C112        C113   1.407       .  A
C112        H116   1.082       .  S
C113        C114   1.405       .  A
C113        C717   1.490       .  S
C114        H117   1.084       .  S
O118       Cr136   1.955       .  S
O118        C126   1.257       .  A
O119       Cr136   2.022       .  S
O119        C120   1.266       .  A
C120        C864   1.472       .  S
C120        O121   1.254       .  A
O121       Cr137   1.960       .  S
O122       Cr137   2.014       .  S
O122        C123   1.267       .  A
C123        C873   1.472       .  S
C123        O124   1.257       .  A
O124       Cr138   1.962       .  S
O125       Cr138   2.025       .  S
O125        C126   1.271       .  A
C126       C1065   1.471       .  S
O127       Cr136   2.022       .  S
O127        C135   1.266       .  A
O128       Cr136   1.956       .  S
O128        C129   1.258       .  A
C129        C708   1.471       .  S
C129        O130   1.271       .  A
O130       Cr137   2.024       .  S
O131       Cr137   1.958       .  S
O131        C132   1.256       .  A
C132        C696   1.472       .  S
C132        O133   1.268       .  A
O133       Cr138   2.015       .  S
O134       Cr138   1.964       .  S
O134        C135   1.255       .  A
C135        C744   1.471       .  S
Cr136       O139   1.775       .  S
Cr137       O139   1.768       .  S
Cr138       O139   1.768       .  S
C140        C141   1.404       .  A
C140        C145   1.407       .  A
C140        C681   1.492       .  S
C141        C142   1.400       .  A
C141        H146   1.084       .  S
C142        C143   1.404       .  A
C142        C669   1.475       .  S
C143        C144   1.407       .  A
C143        H147   1.083       .  S
C144        C145   1.408       .  A
C144        C657   1.492       .  S
C145        H148   1.082       .  S
C149        C150   1.405       .  A
C149        C154   1.408       .  A
C149        C705   1.489       .  S
C150        C151   1.404       .  A
C150        H155   1.083       .  S
C151        C152   1.404       .  A
C151        C645   1.488       .  S
C152        C153   1.402       .  A
C152        H156   1.082       .  S
C153        C154   1.404       .  A
C153        C633   1.487       .  S
C154        H157   1.083       .  S
O158       Cr176   2.026       .  S
O158        C166   1.269       .  A
O159       Cr176   1.964       .  S
O159        C160   1.258       .  A
C160        C684   1.482       .  S
C160        O161   1.270       .  A
O161       Cr177   2.027       .  S
O162       Cr177   1.962       .  S
O162        C163   1.258       .  A
C163        C648   1.474       .  S
C163        O164   1.267       .  A
O164       Cr178   2.018       .  S
O165       Cr178   1.958       .  S
O165        C166   1.255       .  A
C166        C624   1.475       .  S
O167       Cr176   1.963       .  S
O167        C175   1.258       .  A
O168       Cr176   2.027       .  S
O168        C169   1.269       .  A
C169       C1053   1.472       .  S
C169        O170   1.255       .  A
O170       Cr177   1.959       .  S
O171       Cr177   2.017       .  S
O171        C172   1.269       .  A
C172        C792   1.468       .  S
C172        O173   1.257       .  A
O173       Cr178   1.958       .  S
O174       Cr178   2.028       .  S
O174        C175   1.271       .  A
C175        C984   1.478       .  S
Cr176       O179   1.763       .  S
Cr177       O179   1.760       .  S
Cr178       O179   1.765       .  S
C180        C181   1.401       .  A
C180        C185   1.406       .  A
C180        C609   1.486       .  S
C181        C182   1.402       .  A
C181        H186   1.083       .  S
C182        C183   1.407       .  A
C182        C693   1.486       .  S
C183        C184   1.406       .  A
C183        H187   1.083       .  S
C184        C185   1.407       .  A
C184        C597   1.489       .  S
C185        H188   1.083       .  S
C189        C190   1.411       .  A
C189        C194   1.401       .  A
C189        C573   1.490       .  S
C190        C191   1.407       .  A
C190        H195   1.083       .  S
C191        C192   1.406       .  A
C191        C720   1.493       .  S
C192        C193   1.404       .  A
C192        H196   1.083       .  S
C193        C194   1.400       .  A
C193        C585   1.480       .  S
C194        H197   1.082       .  S
O198       Cr216   2.018       .  S
O198        C206   1.269       .  A
O199       Cr216   1.954       .  S
O199        C200   1.254       .  A
C200        C588   1.465       .  S
C200        O201   1.267       .  A
O201       Cr217   2.020       .  S
O202       Cr217   1.955       .  S
O202        C203   1.257       .  A
C203        C561   1.473       .  S
C203        O204   1.272       .  A
O204       Cr218   2.027       .  S
O205       Cr218   1.958       .  S
O205        C206   1.257       .  A
C206        C612   1.471       .  S
O207       Cr216   1.959       .  S
O207        C215   1.256       .  A
O208       Cr216   2.024       .  S
O208        C209   1.269       .  A
C209        C960   1.476       .  S
C209        O210   1.258       .  A
O210       Cr217   1.964       .  S
O211       Cr217   2.016       .  S
O211        C212   1.264       .  A
C212        C849   1.465       .  S
C212        O213   1.254       .  A
O213       Cr218   1.965       .  S
O214       Cr218   2.015       .  S
O214        C215   1.267       .  A
C215       C1017   1.473       .  S
Cr216       O219   1.771       .  S
Cr217       O219   1.771       .  S
Cr218       O219   1.768       .  S
C220        C221   1.404       .  A
C220        C225   1.407       .  A
C220        C564   1.489       .  S
C221        C222   1.404       .  A
C221        H226   1.082       .  S
C222        C223   1.407       .  A
C222        C549   1.489       .  S
C223        C224   1.403       .  A
C223        H227   1.084       .  S
C224        C225   1.403       .  A
C224        C540   1.483       .  S
C225        H228   1.083       .  S
C229        C230   1.408       .  A
C229        C234   1.401       .  A
C229        C621   1.485       .  S
C230        C231   1.406       .  A
C230        H235   1.083       .  S
C231        C232   1.405       .  A
C231        C600   1.490       .  S
C232        C233   1.406       .  A
C232        H236   1.083       .  S
C233        C234   1.400       .  A
C233        C528   1.485       .  S
C234        H237   1.083       .  S
C238        C239   1.406       .  A
C238        C243   1.402       .  A
C238        C501   1.490       .  S
C239        C240   1.407       .  A
C239        H244   1.082       .  S
C240        C241   1.407       .  A
C240        C660   1.494       .  S
C241        C242   1.409       .  A
C241        H245   1.083       .  S
C242        C243   1.402       .  A
C242        C513   1.487       .  S
C243        H246   1.083       .  S
O247       Cr265   1.957       .  S
O247        C255   1.255       .  A
O248       Cr265   2.023       .  S
O248        C249   1.269       .  A
C249        C552   1.475       .  S
C249        O250   1.257       .  A
O250       Cr266   1.963       .  S
O251       Cr266   2.028       .  S
O251        C252   1.270       .  A
C252        C504   1.479       .  S
C252        O253   1.257       .  A
O253       Cr267   1.959       .  S
O254       Cr267   2.026       .  S
O254        C255   1.269       .  A
C255        C525   1.476       .  S
O256       Cr265   2.029       .  S
O256        C264   1.271       .  A
O257       Cr265   1.955       .  S
O257        C258   1.256       .  A
C258        C777   1.474       .  S
C258        O259   1.270       .  A
O259       Cr266   2.024       .  S
O260       Cr266   1.960       .  S
O260        C261   1.256       .  A
C261        C948   1.476       .  S
C261        O262   1.269       .  A
O262       Cr267   2.026       .  S
O263       Cr267   1.958       .  S
O263        C264   1.257       .  A
C264        C900   1.477       .  S
Cr265       O268   1.763       .  S
Cr266       O268   1.761       .  S
Cr267       O268   1.763       .  S
C269        C270   1.407       .  A
C269        C274   1.403       .  A
C269        C489   1.491       .  S
C270        C271   1.404       .  A
C270        H275   1.083       .  S
C271        C272   1.404       .  A
C271        C537   1.484       .  S
C272        C273   1.408       .  A
C272        H276   1.083       .  S
C273        C274   1.403       .  A
C273        C477   1.491       .  S
C274        H277   1.081       .  S
C278        C279   1.402       .  A
C278        C283   1.408       .  A
C278        C465   1.487       .  S
C279        C280   1.401       .  A
C279        H284   1.082       .  S
C280        C281   1.406       .  A
C280        C453   1.487       .  S
C281        C282   1.405       .  A
C281        H285   1.083       .  S
C282        C283   1.407       .  A
C282        C441   1.491       .  S
C283        H286   1.083       .  S
O287       Cr305   2.023       .  S
O287        C295   1.270       .  A
O288       Cr305   1.953       .  S
O288        C289   1.254       .  A
C289       C1092   1.467       .  S
C289        O290   1.269       .  A
O290       Cr306   2.024       .  S
O291       Cr306   1.956       .  S
O291        C292   1.257       .  A
C292        C912   1.467       .  S
C292        O293   1.269       .  A
O293       Cr307   2.021       .  S
O294       Cr307   1.953       .  S
O294        C295   1.256       .  A
C295        C816   1.473       .  S
O296       Cr305   1.959       .  S
O296        C304   1.256       .  A
O297       Cr305   2.025       .  S
O297        C298   1.270       .  A
C298        C516   1.477       .  S
C298        O299   1.256       .  A
O299       Cr306   1.960       .  S
O300       Cr306   2.021       .  S
O300        C301   1.268       .  A
C301        C456   1.478       .  S
C301        O302   1.255       .  A
O302       Cr307   1.960       .  S
O303       Cr307   2.014       .  S
O303        C304   1.267       .  A
C304        C492   1.474       .  S
Cr305       O308   1.771       .  S
Cr306       O308   1.770       .  S
Cr307       O308   1.767       .  S
C309        C310   1.405       .  A
C309        C314   1.404       .  A
C309        C417   1.488       .  S
C310        C311   1.403       .  A
C310        H315   1.083       .  S
C311        C312   1.402       .  A
C311        C636   1.486       .  S
C312        C313   1.407       .  A
C312        H316   1.082       .  S
C313        C314   1.406       .  A
C313        C432   1.490       .  S
C314        H317   1.083       .  S
O318       Cr336   1.962       .  S
O318        C326   1.258       .  A
O319       Cr336   2.029       .  S
O319        C320   1.271       .  A
C320        C924   1.480       .  S
C320        O321   1.258       .  A
O321       Cr337   1.962       .  S
O322       Cr337   2.025       .  S
O322        C323   1.269       .  A
C323        C825   1.474       .  S
C323        O324   1.256       .  A
O324       Cr338   1.961       .  S
O325       Cr338   2.020       .  S
O325        C326   1.269       .  A
C326        C996   1.475       .  S
O327       Cr336   2.022       .  S
O327        C335   1.270       .  A
O328       Cr336   1.964       .  S
O328        C329   1.255       .  A
C329        C672   1.467       .  S
C329        O330   1.267       .  A
O330       Cr337   2.022       .  S
O331       Cr337   1.961       .  S
O331        C332   1.257       .  A
C332        C420   1.476       .  S
C332        O333   1.269       .  A
O333       Cr338   2.025       .  S
O334       Cr338   1.962       .  S
O334        C335   1.257       .  A
C335        C468   1.476       .  S
Cr336       O339   1.767       .  S
Cr337       O339   1.764       .  S
Cr338       O339   1.764       .  S
C340        C341   1.405       .  A
C340        C345   1.401       .  A
C340        C393   1.483       .  S
C341        C342   1.407       .  A
C341        H346   1.083       .  S
C342        C343   1.407       .  A
C342        C444   1.490       .  S
C343        C344   1.407       .  A
C343        H347   1.083       .  S
C344        C345   1.400       .  A
C344        C405   1.484       .  S
C345        H348   1.084       .  S
O349       Cr367   1.961       .  S
O349        C357   1.257       .  A
O350       Cr367   2.029       .  S
O350        C351   1.273       .  A
C351        C480   1.474       .  S
C351        O352   1.257       .  A
O352       Cr368   1.953       .  S
O353       Cr368   2.032       .  S
O353        C354   1.271       .  A
C354        C576   1.482       .  S
C354        O355   1.257       .  A
O355       Cr369   1.961       .  S
O356       Cr369   2.021       .  S
O356        C357   1.269       .  A
C357        C396   1.471       .  S
O358       Cr367   2.023       .  S
O358        C366   1.269       .  A
O359       Cr367   1.965       .  S
O359        C360   1.256       .  A
C360        C753   1.478       .  S
C360        O361   1.267       .  A
O361       Cr368   2.022       .  S
O362       Cr368   1.958       .  S
O362        C363   1.255       .  A
C363       C1104   1.475       .  S
C363        O364   1.269       .  A
O364       Cr369   2.026       .  S
O365       Cr369   1.962       .  S
O365        C366   1.257       .  A
C366       C1032   1.475       .  S
Cr367       O370   1.766       .  S
Cr368       O370   1.768       .  S
Cr369       O370   1.764       .  S
O371       Cr389   2.025       .  S
O371        C379   1.272       .  A
O372       Cr389   1.962       .  S
O372        C373   1.257       .  A
C373        C429   1.473       .  S
C373        O374   1.266       .  A
O374       Cr390   2.012       .  S
O375       Cr390   1.960       .  S
O375        C376   1.254       .  A
C376        C408   1.474       .  S
C376        O377   1.268       .  A
O377       Cr391   2.027       .  S
O378       Cr391   1.957       .  S
O378        C379   1.258       .  A
C379        C732   1.473       .  S
O380       Cr389   1.966       .  S
O380        C388   1.254       .  A
O381       Cr389   2.016       .  S
O381        C382   1.269       .  A
C382        C768   1.474       .  S
C382        O383   1.259       .  A
O383       Cr390   1.963       .  S
O384       Cr390   2.029       .  S
O384        C385   1.270       .  A
C385        C888   1.478       .  S
C385        O386   1.257       .  A
O386       Cr391   1.959       .  S
O387       Cr391   2.018       .  S
O387        C388   1.265       .  A
C388        C933   1.465       .  S
Cr389       O392   1.767       .  S
Cr390       O392   1.769       .  S
Cr391       O392   1.771       .  S
C393        C394   1.406       .  A
C393        C398   1.410       .  A
C394        C395   1.397       .  A
C394        H399   1.084       .  S
C395        C396   1.403       .  A
C395        O400   1.368       .  S
C396        C397   1.404       .  A
C397        C398   1.401       .  A
C397        H401   1.084       .  S
C398        O402   1.371       .  S
O400        H404   0.991       .  S
O402        H403   0.992       .  S
C405        C406   1.403       .  A
C405        C410   1.413       .  A
C406        C407   1.398       .  A
C406        H411   1.084       .  S
C407        C408   1.410       .  A
C407        O412   1.372       .  S
C408        C409   1.402       .  A
C409        C410   1.400       .  A
C409        H413   1.084       .  S
C410        O414   1.372       .  S
O412        H416   0.992       .  S
O414        H415   0.992       .  S
C417        C418   1.408       .  A
C417        C422   1.412       .  A
C418        C419   1.402       .  A
C418        H423   1.083       .  S
C419        C420   1.408       .  A
C419        O424   1.371       .  S
C420        C421   1.402       .  A
C421        C422   1.397       .  A
C421        H425   1.084       .  S
C422        O426   1.373       .  S
O424        H428   0.991       .  S
O426        H427   0.992       .  S
C429        C430   1.402       .  A
C429        C434   1.406       .  A
C430        C431   1.399       .  A
C430        H435   1.084       .  S
C431        C432   1.412       .  A
C431        O436   1.373       .  S
C432        C433   1.409       .  A
C433        C434   1.401       .  A
C433        H437   1.083       .  S
C434        O438   1.372       .  S
O436        H440   0.992       .  S
O438        H439   0.992       .  S
C441        C442   1.406       .  A
C441        C446   1.411       .  A
C442        C443   1.406       .  A
C442        H447   1.083       .  S
C443        C444   1.411       .  A
C443        O448   1.372       .  S
C444        C445   1.404       .  A
C445        C446   1.400       .  A
C445        H449   1.084       .  S
C446        O450   1.373       .  S
O448        H452   0.992       .  S
O450        H451   0.992       .  S
C453        C454   1.404       .  A
C453        C458   1.413       .  A
C454        C455   1.397       .  A
C454        H459   1.083       .  S
C455        C456   1.411       .  A
C455        O460   1.372       .  S
C456        C457   1.403       .  A
C457        C458   1.402       .  A
C457        H461   1.084       .  S
C458        O462   1.373       .  S
O460        H464   0.992       .  S
O462        H463   0.992       .  S
C465        C466   1.404       .  A
C465        C470   1.413       .  A
C466        C467   1.398       .  A
C466        H471   1.083       .  S
C467        C468   1.410       .  A
C467        O472   1.372       .  S
C468        C469   1.401       .  A
C469        C470   1.401       .  A
C469        H473   1.084       .  S
C470        O474   1.373       .  S
O472        H476   0.992       .  S
O474        H475   0.992       .  S
C477        C478   1.404       .  A
C477        C482   1.417       .  A
C478        C479   1.399       .  A
C478        H483   1.083       .  S
C479        C480   1.410       .  A
C479        O484   1.372       .  S
C480        C481   1.398       .  A
C481        C482   1.401       .  A
C481        H485   1.084       .  S
C482        O486   1.372       .  S
O484        H488   0.992       .  S
O486        H487   0.992       .  S
C489        C490   1.406       .  A
C489        C494   1.416       .  A
C490        C491   1.398       .  A
C490        H495   1.083       .  S
C491        C492   1.409       .  A
C491        O496   1.372       .  S
C492        C493   1.399       .  A
C493        C494   1.400       .  A
C493        H497   1.084       .  S
C494        O498   1.372       .  S
O496        H500   0.991       .  S
O498        H499   0.992       .  S
C501        C502   1.409       .  A
C501        C506   1.411       .  A
C502        C503   1.402       .  A
C502        H507   1.083       .  S
C503        C504   1.408       .  A
C503        O508   1.371       .  S
C504        C505   1.404       .  A
C505        C506   1.398       .  A
C505        H509   1.084       .  S
C506        O510   1.372       .  S
O508        H512   0.991       .  S
O510        H511   0.992       .  S
C513        C514   1.404       .  A
C513        C518   1.414       .  A
C514        C515   1.398       .  A
C514        H519   1.083       .  S
C515        C516   1.411       .  A
C515        O520   1.372       .  S
C516        C517   1.402       .  A
C517        C518   1.402       .  A
C517        H521   1.084       .  S
C518        O522   1.373       .  S
O520        H524   0.992       .  S
O522        H523   0.992       .  S
C525        C526   1.402       .  A
C525        C530   1.410       .  A
C526        C527   1.402       .  A
C526        H531   1.084       .  S
C527        C528   1.413       .  A
C527        O532   1.373       .  S
C528        C529   1.403       .  A
C529        C530   1.396       .  A
C529        H533   1.084       .  S
C530        O534   1.373       .  S
O532        H536   0.992       .  S
O534        H535   0.992       .  S
C537        C538   1.405       .  A
C537        C542   1.409       .  A
C538        C539   1.402       .  A
C538        H543   1.084       .  S
C539        C540   1.409       .  A
C539        O544   1.372       .  S
C540        C541   1.404       .  A
C541        C542   1.401       .  A
C541        H545   1.084       .  S
C542        O546   1.371       .  S
O544        H548   0.992       .  S
O546        H547   0.992       .  S
C549        C550   1.405       .  A
C549        C554   1.414       .  A
C550        C551   1.397       .  A
C550        H555   1.083       .  S
C551        C552   1.409       .  A
C551        O556   1.372       .  S
C552        C553   1.402       .  A
C553        C554   1.401       .  A
C553        H557   1.084       .  S
C554        O558   1.372       .  S
O556        H560   0.992       .  S
O558        H559   0.991       .  S
C561        C562   1.403       .  A
C561        C566   1.404       .  A
C562        C563   1.400       .  A
C562        H567   1.084       .  S
C563        C564   1.411       .  A
C563        O568   1.373       .  S
C564        C565   1.410       .  A
C565        C566   1.401       .  A
C565        H569   1.083       .  S
C566        O570   1.371       .  S
O568        H572   0.992       .  S
O570        H571   0.992       .  S
C573        C574   1.401       .  A
C573        C578   1.416       .  A
C574        C575   1.396       .  A
C574        H579   1.083       .  S
C575        C576   1.410       .  A
C575        O580   1.369       .  S
C576        C577   1.403       .  A
C577        C578   1.405       .  A
C577        H581   1.084       .  S
C578        O582   1.373       .  S
O580        H584   0.992       .  S
O582        H583   0.992       .  S
C585        C586   1.402       .  A
C585        C590   1.413       .  A
C586        C587   1.396       .  A
C586        H591   1.084       .  S
C587        C588   1.407       .  A
C587        O592   1.372       .  S
C588        C589   1.399       .  A
C589        C590   1.399       .  A
C589        H593   1.084       .  S
C590        O594   1.372       .  S
O592        H596   0.991       .  S
O594        H595   0.991       .  S
C597        C598   1.404       .  A
C597        C602   1.412       .  A
C598        C599   1.399       .  A
C598        H603   1.083       .  S
C599        C600   1.412       .  A
C599        O604   1.372       .  S
C600        C601   1.406       .  A
C601        C602   1.403       .  A
C601        H605   1.083       .  S
C602        O606   1.372       .  S
O604        H608   0.992       .  S
O606        H607   0.992       .  S
C609        C610   1.404       .  A
C609        C614   1.414       .  A
C610        C611   1.398       .  A
C610        H615   1.083       .  S
C611        C612   1.409       .  A
C611        O616   1.372       .  S
C612        C613   1.400       .  A
C613        C614   1.400       .  A
C613        H617   1.084       .  S
C614        O618   1.372       .  S
O616        H620   0.992       .  S
O618        H619   0.992       .  S
C621        C622   1.403       .  A
C621        C626   1.414       .  A
C622        C623   1.397       .  A
C622        H627   1.083       .  S
C623        C624   1.411       .  A
C623        O628   1.372       .  S
C624        C625   1.401       .  A
C625        C626   1.400       .  A
C625        H629   1.084       .  S
C626        O630   1.372       .  S
O628        H632   0.992       .  S
O630        H631   0.992       .  S
C633        C634   1.405       .  A
C633        C638   1.411       .  A
C634        C635   1.403       .  A
C634        H639   1.084       .  S
C635        C636   1.411       .  A
C635        O640   1.372       .  S
C636        C637   1.404       .  A
C637        C638   1.399       .  A
C637        H641   1.084       .  S
C638        O642   1.372       .  S
O640        H644   0.992       .  S
O642        H643   0.992       .  S
C645        C646   1.408       .  A
C645        C650   1.412       .  A
C646        C647   1.401       .  A
C646        H651   1.083       .  S
C647        C648   1.408       .  A
C647        O652   1.372       .  S
C648        C649   1.401       .  A
C649        C650   1.397       .  A
C649        H653   1.084       .  S
C650        O654   1.373       .  S
O652        H656   0.992       .  S
O654        H655   0.992       .  S
C657        C658   1.404       .  A
C657        C662   1.412       .  A
C658        C659   1.399       .  A
C658        H663   1.084       .  S
C659        C660   1.411       .  A
C659        O664   1.372       .  S
C660        C661   1.408       .  A
C661        C662   1.408       .  A
C661        H665   1.083       .  S
C662        O666   1.372       .  S
O664        H668   0.992       .  S
O666        H667   0.992       .  S
C669        C670   1.401       .  A
C669        C674   1.408       .  A
C670        C671   1.399       .  A
C670        H675   1.084       .  S
C671        C672   1.406       .  A
C671        O676   1.371       .  S
C672        C673   1.402       .  A
C673        C674   1.402       .  A
C673        H677   1.084       .  S
C674        O678   1.371       .  S
O676        H680   0.991       .  S
O678        H679   0.991       .  S
C681        C682   1.408       .  A
C681        C686   1.412       .  A
C682        C683   1.403       .  A
C682        H687   1.083       .  S
C683        C684   1.409       .  A
C683        O688   1.371       .  S
C684        C685   1.404       .  A
C685        C686   1.399       .  A
C685        H689   1.084       .  S
C686        O690   1.373       .  S
O688        H692   0.992       .  S
O690        H691   0.992       .  S
C693        C694   1.404       .  A
C693        C698   1.414       .  A
C694        C695   1.398       .  A
C694        H699   1.083       .  S
C695        C696   1.408       .  A
C695        O700   1.372       .  S
C696        C697   1.400       .  A
C697        C698   1.401       .  A
C697        H701   1.084       .  S
C698        O702   1.373       .  S
O700        H704   0.992       .  S
O702        H703   0.992       .  S
C705        C706   1.410       .  A
C705        C710   1.411       .  A
C706        C707   1.401       .  A
C706        H711   1.083       .  S
C707        C708   1.404       .  A
C707        O712   1.372       .  S
C708        C709   1.402       .  A
C709        C710   1.398       .  A
C709        H713   1.084       .  S
C710        O714   1.373       .  S
O712        H716   0.991       .  S
O714        H715   0.992       .  S
C717        C718   1.404       .  A
C717        C722   1.411       .  A
C718        C719   1.401       .  A
C718        H723   1.084       .  S
C719        C720   1.412       .  A
C719        O724   1.372       .  S
C720        C721   1.407       .  A
C721        C722   1.405       .  A
C721        H725   1.083       .  S
C722        O726   1.372       .  S
O724        H728   0.992       .  S
O726        H727   0.992       .  S
C729        C730   1.410       .  A
C729        C734   1.411       .  A
C730        C731   1.401       .  A
C730        H735   1.083       .  S
C731        C732   1.404       .  A
C731        O736   1.372       .  S
C732        C733   1.403       .  A
C733        C734   1.400       .  A
C733        H737   1.084       .  S
C734        O738   1.373       .  S
O736        H740   0.992       .  S
O738        H739   0.992       .  S
C741        C742   1.406       .  A
C741        C746   1.408       .  A
C742        C743   1.402       .  A
C742        H747   1.084       .  S
C743        C744   1.407       .  A
C743        O748   1.372       .  S
C744        C745   1.402       .  A
C745        C746   1.398       .  A
C745        H749   1.084       .  S
C746        O750   1.372       .  S
O748        H752   0.992       .  S
O750        H751   0.992       .  S
C753        C754   1.403       .  A
C753        C758   1.408       .  A
C754        C755   1.399       .  A
C754        H759   1.084       .  S
C755        C756   1.412       .  A
C755        O760   1.373       .  S
C756        C757   1.408       .  A
C757        C758   1.402       .  A
C757        H761   1.083       .  S
C758        O762   1.371       .  S
O760        H764   0.992       .  S
O762        H763   0.992       .  S
C765        C766   1.409       .  A
C765        C770   1.412       .  A
C766        C767   1.401       .  A
C766        H771   1.083       .  S
C767        C768   1.405       .  A
C767        O772   1.372       .  S
C768        C769   1.402       .  A
C769        C770   1.400       .  A
C769        H773   1.084       .  S
C770        O774   1.373       .  S
O772        H776   0.992       .  S
O774        H775   0.992       .  S
C777        C778   1.400       .  A
C777        C782   1.409       .  A
C778        C779   1.402       .  A
C778        H783   1.084       .  S
C779        C780   1.416       .  A
C779        O784   1.373       .  S
C780        C781   1.405       .  A
C781        C782   1.396       .  A
C781        H785   1.083       .  S
C782        O786   1.372       .  S
O784        H788   0.992       .  S
O786        H787   0.992       .  S
C789        C790   1.408       .  A
C789        C794   1.409       .  A
C790        C791   1.398       .  A
C790        H795   1.084       .  S
C791        C792   1.404       .  A
C791        O796   1.372       .  S
C792        C793   1.403       .  A
C793        C794   1.400       .  A
C793        H797   1.084       .  S
C794        O798   1.373       .  S
O796        H800   0.992       .  S
O798        H799   0.992       .  S
C801        C802   1.405       .  A
C801        C806   1.411   1_565  A
C802        C803   1.400       .  A
C802        H807   1.083       .  S
C803        C804   1.409       .  A
C803        O808   1.371       .  S
C804        C805   1.405   1_565  A
C805        C806   1.401       .  A
C805        H809   1.084       .  S
C806        O810   1.372       .  S
O808        H812   0.992       .  S
O810        H811   0.992       .  S
C813        C814   1.411       .  A
C813        C818   1.411       .  A
C814        C815   1.401       .  A
C814        H819   1.083       .  S
C815        C816   1.405       .  A
C815        O820   1.372       .  S
C816        C817   1.403       .  A
C817        C818   1.398       .  A
C817        H821   1.084       .  S
C818        O822   1.373       .  S
O820        H824   0.992       .  S
O822        H823   0.992       .  S
C825        C826   1.403       .  A
C825        C830   1.408       .  A
C826        C827   1.403       .  A
C826        H831   1.084       .  S
C827        C828   1.413       .  A
C827        O832   1.373       .  S
C828        C829   1.404       .  A
C829        C830   1.396       .  A
C829        H833   1.083       .  S
C830        O834   1.372       .  S
O832        H836   0.992       .  S
O834        H835   0.991       .  S
C837        C838   1.405       .  A
C837        C842   1.410   1_565  A
C838        C839   1.402       .  A
C838        H843   1.084       .  S
C839        C840   1.411       .  A
C839        O844   1.371       .  S
C840        C841   1.404   1_565  A
C841        C842   1.400       .  A
C841        H845   1.084       .  S
C842        O846   1.372       .  S
O844        H848   0.992       .  S
O846        H847   0.992       .  S
C849        C850   1.401       .  A
C849        C854   1.406       .  A
C850        C851   1.398       .  A
C850        H855   1.084       .  S
C851        C852   1.406       .  A
C851        O856   1.372       .  S
C852        C853   1.403       .  A
C853        C854   1.400       .  A
C853        H857   1.084       .  S
C854        O858   1.372       .  S
O856        H860   0.991       .  S
O858        H859   0.991       .  S
C861        C862   1.407       .  A
C861        C866   1.409       .  A
C862        C863   1.402       .  A
C862        H867   1.083       .  S
C863        C864   1.407       .  A
C863        O868   1.372       .  S
C864        C865   1.402       .  A
C865        C866   1.397       .  A
C865        H869   1.084       .  S
C866        O870   1.373       .  S
O868        H872   0.992       .  S
O870        H871   0.992       .  S
C873        C874   1.402       .  A
C873        C878   1.405       .  A
C874        C875   1.400       .  A
C874        H879   1.084       .  S
C875        C876   1.411       .  A
C875        O880   1.373       .  S
C876        C877   1.409       .  A
C877        C878   1.400       .  A
C877        H881   1.083       .  S
C878        O882   1.372       .  S
O880        H884   0.992       .  S
O882        H883   0.992       .  S
C885        C886   1.404       .  A
C885        C890   1.413       .  A
C886        C887   1.396       .  A
C886        H891   1.084       .  S
C887        C888   1.410       .  A
C887        O892   1.372       .  S
C888        C889   1.403       .  A
C889        C890   1.404       .  A
C889        H893   1.084       .  S
C890        O894   1.372   1_455  S
O892        H896   0.992       .  S
O894        H895   0.992       .  S
C897        C898   1.404       .  A
C897        C902   1.414       .  A
C898        C899   1.397       .  A
C898        H903   1.083       .  S
C899        C900   1.410       .  A
C899        O904   1.372       .  S
C900        C901   1.402       .  A
C901        C902   1.403       .  A
C901        H905   1.084       .  S
C902        O906   1.373       .  S
O904        H908   0.992       .  S
O906        H907   0.992       .  S
C909        C910   1.403       .  A
C909        C914   1.413       .  A
C910        C911   1.397       .  A
C910        H915   1.084       .  S
C911        C912   1.407       .  A
C911        O916   1.372       .  S
C912        C913   1.400       .  A
C913        C914   1.400       .  A
C913        H917   1.084       .  S
C914        O918   1.372       .  S
O916        H920   0.992       .  S
O918        H919   0.992       .  S
C921        C922   1.409       .  A
C921        C926   1.411       .  A
C922        C923   1.402       .  A
C922        H927   1.083       .  S
C923        C924   1.407       .  A
C923        O928   1.371       .  S
C924        C925   1.404       .  A
C925        C926   1.400       .  A
C925        H929   1.084       .  S
C926        O930   1.373       .  S
O928        H932   0.992       .  S
O930        H931   0.992       .  S
C933        C934   1.401       .  A
C933        C938   1.406       .  A
C934        C935   1.399       .  A
C934        H939   1.083       .  S
C935        C936   1.406       .  A
C935        O940   1.371       .  S
C936        C937   1.402       .  A
C937        C938   1.400       .  A
C937        H941   1.084       .  S
C938        O942   1.372       .  S
O940        H944   0.991       .  S
O942        H943   0.991       .  S
C945        C946   1.408       .  A
C945        C950   1.410       .  A
C946        C947   1.402       .  A
C946        H951   1.083       .  S
C947        C948   1.408       .  A
C947        O952   1.372       .  S
C948        C949   1.404       .  A
C949        C950   1.398       .  A
C949        H953   1.084       .  S
C950        O954   1.373       .  S
O952        H956   0.991       .  S
O954        H955   0.992       .  S
C957        C958   1.407       .  A
C957        C962   1.410       .  A
C958        C959   1.401       .  A
C958        H963   1.083       .  S
C959        C960   1.407       .  A
C959        O964   1.372       .  S
C960        C961   1.404       .  A
C961        C962   1.399       .  A
C961        H965   1.084       .  S
C962        O966   1.373       .  S
O964        H968   0.992       .  S
O966        H967   0.992       .  S
C969        C970   1.405       .  A
C969        C974   1.412       .  A
C970        C971   1.401   1_556  A
C970        H975   1.083       .  S
C971        C972   1.410       .  A
C971        O976   1.372       .  S
C972        C973   1.405       .  A
C973        C974   1.403   1_554  A
C973        H977   1.084       .  S
C974        O978   1.371       .  S
O976        H980   0.992   1_655  S
O978        H979   0.992       .  S
C981        C982   1.409       .  A
C981        C986   1.412       .  A
C982        C983   1.402       .  A
C982        H987   1.083       .  S
C983        C984   1.407       .  A
C983        O988   1.371       .  S
C984        C985   1.403       .  A
C985        C986   1.399       .  A
C985        H989   1.084       .  S
C986        O990   1.373       .  S
O988        H992   0.992       .  S
O990        H991   0.992       .  S
C993        C994   1.410       .  A
C993        C998   1.413       .  A
C994        C995   1.401       .  A
C994        H999   1.083   1_455  S
C995        C996   1.405       .  A
C995       O1000   1.371       .  S
C996        C997   1.402       .  A
C997        C998   1.401       .  A
C997       H1001   1.084       .  S
C998       O1002   1.373       .  S
O1000      H1004   0.991       .  S
O1002      H1003   0.992       .  S
C1005      C1006   1.404       .  A
C1005      C1010   1.411       .  A
C1006      C1007   1.400   1_554  A
C1006      H1011   1.084       .  S
C1007      C1008   1.412       .  A
C1007      O1012   1.372       .  S
C1008      C1009   1.406       .  A
C1009      C1010   1.403   1_556  A
C1009      H1013   1.083       .  S
C1010      O1014   1.372       .  S
O1012      H1016   0.991       .  S
O1014      H1015   0.991       .  S
C1017      C1018   1.403       .  A
C1017      C1022   1.404       .  A
C1018      C1019   1.399       .  A
C1018      H1023   1.084       .  S
C1019      C1020   1.412       .  A
C1019      O1024   1.373       .  S
C1020      C1021   1.410       .  A
C1021      C1022   1.400       .  A
C1021      H1025   1.083       .  S
C1022      O1026   1.372       .  S
O1024      H1028   0.992       .  S
O1026      H1027   0.991       .  S
C1029      C1030   1.405       .  A
C1029      C1034   1.414       .  A
C1030      C1031   1.396       .  A
C1030      H1035   1.083       .  S
C1031      C1032   1.409       .  A
C1031      O1036   1.372       .  S
C1032      C1033   1.402       .  A
C1033      C1034   1.401       .  A
C1033      H1037   1.084       .  S
C1034      O1038   1.372       .  S
O1036      H1040   0.992       .  S
O1038      H1039   0.992       .  S
C1041      C1042   1.404   1_554  A
C1041      C1046   1.407       .  A
C1042      C1043   1.404   1_545  A
C1042      H1047   1.084       .  S
C1043      C1044   1.408   1_556  A
C1043      O1048   1.371       .  S
C1044      C1045   1.403       .  A
C1045      C1046   1.399   1_565  A
C1045      H1049   1.084       .  S
C1046      O1050   1.372       .  S
O1048      H1052   0.992       .  S
O1050      H1051   0.992       .  S
C1053      C1054   1.402       .  A
C1053      C1058   1.409       .  A
C1054      C1055   1.401       .  A
C1054      H1059   1.084       .  S
C1055      C1056   1.412       .  A
C1055      O1060   1.372       .  S
C1056      C1057   1.403       .  A
C1057      C1058   1.397       .  A
C1057      H1061   1.084       .  S
C1058      O1062   1.372       .  S
O1060      H1064   0.992       .  S
O1062      H1063   0.992       .  S
C1065      C1066   1.400       .  A
C1065      C1070   1.408       .  A
C1066      C1067   1.402       .  A
C1066      H1071   1.084       .  S
C1067      C1068   1.414       .  A
C1067      O1072   1.373       .  S
C1068      C1069   1.404       .  A
C1069      C1070   1.397       .  A
C1069      H1073   1.084       .  S
C1070      O1074   1.372       .  S
O1072      H1076   0.992       .  S
O1074      H1075   0.991       .  S
C1077      C1078   1.404       .  A
C1077      C1082   1.412   1_554  A
C1078      C1079   1.399   1_545  A
C1078      H1083   1.084       .  S
C1079      C1080   1.411       .  A
C1079      O1084   1.372       .  S
C1080      C1081   1.406   1_554  A
C1081      C1082   1.405   1_565  A
C1081      H1085   1.083       .  S
C1082      O1086   1.371       .  S
O1084      H1088   0.992       .  S
O1086      H1087   0.992       .  S
C1089      C1090   1.402       .  A
C1089      C1094   1.413       .  A
C1090      C1091   1.398       .  A
C1090      H1095   1.084       .  S
C1091      C1092   1.408       .  A
C1091      O1096   1.372       .  S
C1092      C1093   1.399       .  A
C1093      C1094   1.400       .  A
C1093      H1097   1.084       .  S
C1094      O1098   1.372       .  S
O1096      H1100   0.992       .  S
O1098      H1099   0.991       .  S
C1101      C1102   1.408       .  A
C1101      C1106   1.409       .  A
C1102      C1103   1.401       .  A
C1102      H1107   1.083       .  S
C1103      C1104   1.407       .  A
C1103      O1108   1.371       .  S
C1104      C1105   1.404       .  A
C1105      C1106   1.398       .  A
C1105      H1109   1.084       .  S
C1106      O1110   1.373       .  S
O1108      H1112   0.992       .  S
O1110      H1111   0.992       .  S
