geometry optimzed in LAMMPS
_audit_creation_date              2020-11-30 
_audit_creation_method            'lammps2cif' 
_symmetry_space_group_name_H-M    'P1' 
_symmetry_Int_Tables_number       1 
_symmetry_cell_setting            triclinic 
loop_ 
_symmetry_equiv_pos_as_xyz 
  x,y,z 
_cell_length_a                    34.64393853 
_cell_length_b                    34.72755977318378 
_cell_length_c                    34.550643790872044 
_cell_angle_alpha                 89.57617530173627 
_cell_angle_beta                  89.2736057952605 
_cell_angle_gamma                 89.6870797185966 
loop_ 
_atom_site_label 
_atom_site_type_symbol 
_atom_site_fract_x 
_atom_site_fract_y 
_atom_site_fract_z 
_atom_site_charge 
Zn1        Zn  0.79298818  0.77615781  0.76931536     1.49700
Zn2        Zn  0.78747313  0.71534651  0.70128326     1.49400
Zn3        Zn  0.72583498  0.71464401  0.77023405     1.49100
Zn4        Zn  0.72574857  0.78441380  0.70874603     1.49500
O5          O  0.75794590  0.74758054  0.73709227    -1.80000
O6          O  0.84719865  0.75614686  0.76377342    -0.70700
O7          O  0.77122510  0.66003708  0.70683036    -0.70500
O8          O  0.73072999  0.72838899  0.82659921    -0.70000
O9          O  0.84470592  0.71799865  0.71222862    -0.70700
O10         O  0.77570074  0.77396250  0.82481437    -0.70300
O11         O  0.73373913  0.65790424  0.75958296    -0.70900
O12         O  0.66930867  0.77649220  0.72092842    -0.70300
O13         O  0.77579047  0.72910198  0.64582556    -0.71000
O14         O  0.67072471  0.72379710  0.75799006    -0.70400
O15         O  0.73035748  0.77439164  0.65184214    -0.70900
O16         O  0.74153620  0.83966936  0.71823862    -0.70800
O17         O  0.79308505  0.83216858  0.75540657    -0.70600
C18         C  0.86342775  0.73427618  0.73901162     0.81200
C19         C  0.75052294  0.64149584  0.73111574     0.81700
C20         C  0.75069315  0.75403101  0.84306051     0.80700
C21         C  0.65243118  0.74928960  0.73911410     0.81000
C22         C  0.75086593  0.75182270  0.63126915     0.82200
C23         C  0.77003328  0.85340372  0.73641160     0.81200
Zn24       Zn  0.28679037  0.71395431  0.76759960     1.49700
Zn25       Zn  0.29313521  0.78507943  0.70862952     1.49400
Zn26       Zn  0.22866402  0.72049277  0.69732320     1.49100
Zn27       Zn  0.22241668  0.77877525  0.76721709     1.49500
O28         O  0.25788138  0.74954661  0.73493784    -1.80000
O29         O  0.34320720  0.72063438  0.75805383    -0.70700
O30         O  0.29225571  0.77621110  0.65122706    -0.70500
O31         O  0.24011962  0.66411778  0.70260039    -0.70000
O32         O  0.34812089  0.77531833  0.72428290    -0.70700
O33         O  0.27498732  0.65852497  0.75602221    -0.70300
O34         O  0.24406481  0.73499947  0.64270387    -0.70900
O35         O  0.16828743  0.75974509  0.76128503    -0.70300
O36         O  0.27794130  0.84053597  0.71796590    -0.71000
O37         O  0.17127951  0.72511407  0.70726478    -0.70400
O38         O  0.22435255  0.83496333  0.75384590    -0.70900
O39         O  0.23685266  0.77426597  0.82298014    -0.70800
O40         O  0.27875929  0.72546719  0.82393580    -0.70600
C41         C  0.36324604  0.74682893  0.74190408     0.81200
C42         C  0.27121121  0.75604367  0.62944635     0.81700
C43         C  0.25754871  0.64374700  0.72762385     0.80700
C44         C  0.15235650  0.73953613  0.73550881     0.81000
C45         C  0.24892547  0.85529211  0.73540483     0.82200
C46         C  0.25930697  0.75156230  0.84099784     0.81200
N47         N  0.73514569  0.75675001  0.48711870     0.00600
C48         C  0.71870391  0.74173103  0.51925591     0.03200
C49         C  0.68724240  0.71958662  0.50976924    -0.19700
C50         C  0.68469425  0.72107685  0.46983937    -0.19900
C51         C  0.71470252  0.74409550  0.45693220     0.03100
H52         H  0.66872816  0.70357677  0.52947268     0.16900
H53         H  0.66385764  0.70635119  0.45226124     0.16900
N54         N  0.00832234  0.73023538  0.74090568     0.00600
C55         C  0.97740114  0.71149684  0.75554261     0.03200
C56         C  0.98909709  0.68178027  0.77957154    -0.19700
C57         C  0.02901748  0.68231995  0.77926104    -0.19900
C58         C  0.03974430  0.71235962  0.75507128     0.03100
H59         H  0.97075900  0.66179111  0.79530021     0.16900
H60         H  0.04797085  0.66284800  0.79468901     0.16900
N61         N  0.99796824  0.72991094  0.22536868     0.00600
C62         C  0.96615041  0.71968028  0.20614762     0.03200
C63         C  0.97611953  0.69717591  0.17469416    -0.19700
C64         C  0.01596437  0.69361005  0.17498187    -0.19900
C65         C  0.02831528  0.71404372  0.20665475     0.03100
H66         H  0.95676020  0.68498064  0.15377958     0.16900
H67         H  0.03379657  0.67822352  0.15424863     0.16900
N68         N  0.04940404  0.84008345  0.44470814    -0.32500
N69         N  0.04872424  0.84560102  0.52858677    -0.53100
N70         N  0.96460356  0.84298706  0.53076175    -0.32500
N71         N  0.96538720  0.83576439  0.44710010    -0.53100
C72         C  0.08717882  0.83375048  0.45208287     0.31100
C73         C  0.04262945  0.82610689  0.40897145     0.31100
C74         C  0.97244763  0.83444193  0.56813992     0.31100
C75         C  0.92758600  0.83261850  0.52464638     0.31100
C76         C  0.08687317  0.85071954  0.52211886     0.39700
C77         C  0.04283711  0.84922169  0.56709578     0.39700
C78         C  0.97113421  0.83456414  0.40841646     0.39700
C79         C  0.92690218  0.83907721  0.45284777     0.39700
C80         C  0.10491116  0.81714168  0.41998276    -0.17800
C81         C  0.07680649  0.81223143  0.39286548    -0.17800
C82         C  0.93955035  0.81989334  0.58624710    -0.17800
C83         C  0.91124059  0.81892168  0.55887619    -0.17800
C84         C  0.10518574  0.85863173  0.55662023    -0.18900
C85         C  0.07728683  0.85747688  0.58515592    -0.18900
C86         C  0.93620003  0.83756237  0.38946189    -0.18900
C87         C  0.90817168  0.84061671  0.41761239    -0.18900
C88         C  0.10611304  0.84194640  0.48705631    -0.14200
C89         C  0.00663428  0.82567363  0.39025758    -0.14200
C90         C  0.90816908  0.83472066  0.48900996    -0.14200
C91         C  0.00827073  0.83938173  0.58657725    -0.14200
H92         H  0.13487390  0.80868029  0.41662327     0.18700
H93         H  0.08105311  0.79945019  0.36464118     0.18700
H94         H  0.93625519  0.81055599  0.61605484     0.18700
H95         H  0.88216007  0.80846320  0.56351362     0.18700
H96         H  0.13577034  0.86267347  0.56104922     0.17000
H97         H  0.08205981  0.86063703  0.61586896     0.17000
H98         H  0.93131077  0.83624588  0.35861826     0.17000
H99         H  0.87738899  0.84188299  0.41271949     0.17000
H100        H  0.03001112  0.85520591  0.46209297     0.30200
H101        H  0.98258034  0.85727115  0.51118519     0.30200
N102        N  0.27639184  0.75839148  0.48513339     0.00600
C103        C  0.29744948  0.74541155  0.51501773     0.03200
C104        C  0.32627485  0.72091375  0.50193064    -0.19700
C105        C  0.32224084  0.71874276  0.46220458    -0.19900
C106        C  0.29108183  0.74192031  0.45301106     0.03100
H107        H  0.34695359  0.70528928  0.51933777     0.16900
H108        H  0.33931298  0.70129404  0.44252581     0.16900
Zn109      Zn  0.21508671  0.71569645  0.27318412     1.49700
Zn110      Zn  0.21202481  0.77539953  0.20354934     1.49400
Zn111      Zn  0.27963475  0.78122289  0.26351218     1.49100
Zn112      Zn  0.27706097  0.71122240  0.20418513     1.49500
O113        O  0.24609964  0.74571459  0.23638756    -1.80000
O114        O  0.15805519  0.71905994  0.26078257    -0.70700
O115        O  0.21051860  0.83092785  0.21941857    -0.70500
O116        O  0.27759691  0.76909786  0.32011763    -0.70000
O117        O  0.15838620  0.75453611  0.20676518    -0.70700
O118        O  0.22755458  0.72964381  0.32852494    -0.70300
O119        O  0.26148910  0.83651907  0.25755647    -0.70900
O120        O  0.33315910  0.72079825  0.21257974    -0.70300
O121        O  0.22961955  0.77290866  0.14813310    -0.71000
O122        O  0.33559485  0.77481345  0.24681334    -0.70400
O123        O  0.26929074  0.72222721  0.14754750    -0.70900
O124        O  0.26743315  0.65529869  0.21702996    -0.70800
O125        O  0.22841457  0.65966074  0.26850747    -0.70600
C126        C  0.14097174  0.73356191  0.23161598     0.81200
C127        C  0.23260036  0.85105387  0.24020354     0.81700
C128        C  0.25528092  0.74934585  0.34181663     0.80700
C129        C  0.35205651  0.74762988  0.22824316     0.81000
C130        C  0.25146771  0.74930599  0.13026189     0.82200
C131        C  0.24846927  0.63990961  0.24479819     0.81200
Zn132      Zn  0.78020251  0.72742602  0.27179316     1.49700
Zn133      Zn  0.78266070  0.78919505  0.20466499     1.49400
Zn134      Zn  0.72078885  0.72284730  0.20224946     1.49100
Zn135      Zn  0.71275500  0.79041772  0.26484066     1.49500
O136        O  0.74874631  0.75736725  0.23610981    -1.80000
O137        O  0.83709647  0.73253303  0.25969340    -0.70700
O138        O  0.76651023  0.78888444  0.14921296    -0.70500
O139        O  0.73342482  0.66675036  0.21307139    -0.70000
O140        O  0.83725777  0.76978436  0.20695609    -0.70700
O141        O  0.76959423  0.67137406  0.26561510    -0.70300
O142        O  0.72923879  0.73699671  0.14600477    -0.70900
O143        O  0.65754659  0.78163459  0.24811384    -0.70300
O144        O  0.78087011  0.84384154  0.22264517    -0.71000
O145        O  0.66395733  0.72969526  0.21101078    -0.70400
O146        O  0.72782373  0.84669748  0.25970303    -0.70900
O147        O  0.71491259  0.77731667  0.32161773    -0.70800
O148        O  0.76678683  0.73952145  0.32732834    -0.70600
C149        C  0.85457339  0.74824023  0.23112296     0.81200
C150        C  0.74612499  0.76559141  0.13013050     0.81700
C151        C  0.75191240  0.65143864  0.24089818     0.80700
C152        C  0.64314101  0.75474279  0.22808383     0.81000
C153        C  0.75678633  0.86264634  0.24326124     0.82200
C154        C  0.73841684  0.75793496  0.34208583     0.81200
N155        N  0.74403987  0.77154602  0.98605917     0.00600
C156        C  0.72765974  0.78604379  0.95399435     0.03200
C157        C  0.70069095  0.81393836  0.96369974    -0.19700
C158        C  0.70053659  0.81614370  0.00370935    -0.19900
C159        C  0.72744585  0.78951885  0.01638967     0.03100
H160        H  0.68265469  0.83025073  0.94409607     0.16900
H161        H  0.68229208  0.83445429  0.02145256     0.16900
N162        N  0.74383419  0.49782951  0.72242905     0.00600
C163        C  0.73048405  0.52933402  0.70395212     0.03200
C164        C  0.70868987  0.51873374  0.67258610    -0.19700
C165        C  0.70877931  0.47882976  0.67222957    -0.19900
C166        C  0.73064933  0.46696576  0.70337637     0.03100
H167        H  0.69415821  0.53772268  0.65244375     0.16900
H168        H  0.69423014  0.46063354  0.65179006     0.16900
N169        N  0.73767014  0.24973404  0.99498952     0.00600
C170        C  0.71906901  0.23528606  0.96436616     0.03200
C171        C  0.69255368  0.20800361  0.97642528    -0.19700
C172        C  0.69488440  0.20606473  0.01629282    -0.19900
C173        C  0.72279786  0.23217030  0.02659324     0.03100
H174        H  0.67350626  0.19155094  0.95835975     0.16900
H175        H  0.67785385  0.18800294  0.03552868     0.16900
N176        N  0.83451513  0.46641904  0.95141933    -0.32500
N177        N  0.84924551  0.46779213  0.03352455    -0.53100
N178        N  0.85158688  0.55167152  0.03215597    -0.32500
N179        N  0.83596997  0.54983108  0.94956848    -0.53100
C180        C  0.82419222  0.43020082  0.96162108     0.31100
C181        C  0.81895000  0.47368606  0.91643116     0.31100
C182        C  0.84774796  0.54479501  0.07062975     0.31100
C183        C  0.84037377  0.58858039  0.02583779     0.31100
C184        C  0.85020078  0.42930493  0.02829043     0.39700
C185        C  0.85962410  0.47393621  0.07044596     0.39700
C186        C  0.83357688  0.54345847  0.91117672     0.39700
C187        C  0.84055685  0.58812224  0.95375400     0.39700
C188        C  0.80237032  0.41416099  0.93247044    -0.17800
C189        C  0.79917582  0.44155519  0.90391928    -0.17800
C190        C  0.83549353  0.57817016  0.08906327    -0.17800
C191        C  0.83086445  0.60575456  0.06083972    -0.17800
C192        C  0.86213070  0.41084868  0.06179113    -0.18900
C193        C  0.86811024  0.43917037  0.08855985    -0.18900
C194        C  0.83709300  0.57780974  0.89077478    -0.18900
C195        C  0.84135369  0.60618256  0.91780782    -0.18900
C196        C  0.83485579  0.41073936  0.99588284    -0.14200
C197        C  0.82307728  0.50804833  0.89490733    -0.14200
C198        C  0.83847390  0.60732534  0.98947276    -0.14200
C199        C  0.85459910  0.50926383  0.08966786    -0.14200
H200        H  0.78996332  0.38565016  0.93172074     0.18700
H201        H  0.78376262  0.43822472  0.87710629     0.18700
H202        H  0.82986095  0.58217654  0.11965796     0.18700
H203        H  0.82099151  0.63498697  0.06557965     0.18700
H204        H  0.86435419  0.38014424  0.06697967     0.17000
H205        H  0.87576667  0.43458953  0.11852849     0.17000
H206        H  0.83500342  0.58218264  0.85981762     0.17000
H207        H  0.84333148  0.63675003  0.91179846     0.17000
H208        H  0.85405811  0.48380043  0.96562512     0.30200
H209        H  0.86332090  0.53297703  0.01175110     0.30200
N210        N  0.76308452  0.50687432  0.25491632     0.00600
C211        C  0.74551634  0.53832886  0.26961848     0.03200
C212        C  0.71887901  0.52784125  0.29777763    -0.19700
C213        C  0.71983840  0.48810468  0.29981757    -0.19900
C214        C  0.74706532  0.47619656  0.27284589     0.03100
H215        H  0.69968249  0.54677229  0.31377514     0.16900
H216        H  0.70138589  0.46995919  0.31758357     0.16900
Zn217      Zn  0.71374284  0.28817599  0.27456927     1.49700
Zn218      Zn  0.71948191  0.21813691  0.21812553     1.49400
Zn219      Zn  0.77763959  0.28939356  0.20913405     1.49100
Zn220      Zn  0.78494479  0.23071101  0.28062142     1.49500
O221        O  0.74934139  0.25637924  0.24539967    -1.80000
O222        O  0.65946486  0.28204803  0.25663468    -0.70700
O223        O  0.72840195  0.22436476  0.16132714    -0.70500
O224        O  0.77002492  0.34593810  0.22161568    -0.70000
O225        O  0.66213999  0.22635028  0.22525799    -0.70700
O226        O  0.72812232  0.34366598  0.27088920    -0.70300
O227        O  0.76294322  0.27797780  0.15391675    -0.70900
O228        O  0.83992456  0.24679163  0.26965471    -0.70300
O229        O  0.73500522  0.16401441  0.23281387    -0.71000
O230        O  0.83434825  0.27984018  0.21439807    -0.70400
O231        O  0.78344884  0.17339666  0.27335342    -0.70900
O232        O  0.76935706  0.23988206  0.33623623    -0.70800
O233        O  0.71489833  0.27372736  0.33016499    -0.70600
C234        C  0.64323821  0.25483483  0.23878173     0.81200
C235        C  0.74433728  0.24982571  0.14005082     0.81700
C236        C  0.75039690  0.36233105  0.24822970     0.80700
C237        C  0.85472930  0.26436173  0.24065681     0.81000
C238        C  0.76187233  0.15123690  0.25421427     0.82200
C239        C  0.73934601  0.25579760  0.35065143     0.81200
Zn240      Zn  0.71223100  0.28294665  0.77114626     1.49700
Zn241      Zn  0.77783158  0.21942185  0.77986880     1.49400
Zn242      Zn  0.71437570  0.20876723  0.71635368     1.49100
Zn243      Zn  0.77785243  0.27561209  0.70648475     1.49500
O244        O  0.74554211  0.24682225  0.74327484    -1.80000
O245        O  0.71597368  0.27550859  0.82905465    -0.70700
O246        O  0.77723880  0.16248005  0.77102652    -0.70500
O247        O  0.65756248  0.21835817  0.72468370    -0.70000
O248        O  0.76058513  0.22939163  0.83436196    -0.70700
O249        O  0.65757510  0.27410395  0.75624237    -0.70300
O250        O  0.73005718  0.15388950  0.72894170    -0.70900
O251        O  0.76699086  0.25985864  0.65190730    -0.70300
O252        O  0.83275455  0.23544719  0.77388750    -0.71000
O253        O  0.72134700  0.21541199  0.65943271    -0.70400
O254        O  0.83423009  0.26891735  0.71860107    -0.70900
O255        O  0.76604139  0.33259607  0.70847717    -0.70800
O256        O  0.72300420  0.33824878  0.75641799    -0.70600
C257        C  0.73619475  0.25249469  0.84936610     0.81200
C258        C  0.75682848  0.14073326  0.75026842     0.81700
C259        C  0.64009901  0.24751497  0.73866424     0.80700
C260        C  0.74258602  0.23661315  0.63815263     0.81000
C261        C  0.85100157  0.25366976  0.74750607     0.82200
C262        C  0.74401137  0.35300870  0.72982339     0.81200
N263        N  0.77495380  0.99679962  0.75035206     0.00600
C264        C  0.79558749  0.96773742  0.73459666     0.03200
C265        C  0.82699911  0.98205822  0.71420062    -0.19700
C266        C  0.82504616  0.02170259  0.71731653    -0.19900
C267        C  0.79256759  0.02969350  0.73951184     0.03100
H268        H  0.84820637  0.96568962  0.69786067     0.16900
H269        H  0.84436647  0.04232396  0.70380038     0.16900
N270        N  0.50837524  0.74004619  0.74635722     0.00600
C271        C  0.53923302  0.72508276  0.72778134     0.03200
C272        C  0.52785723  0.69865705  0.70058375    -0.19700
C273        C  0.48801029  0.69796364  0.70235919    -0.19900
C274        C  0.47711358  0.72395259  0.73058597     0.03100
H275        H  0.54627534  0.68271584  0.68080714     0.16900
H276        H  0.46915389  0.68147583  0.68412587     0.16900
N277        N  0.23944516  0.99951423  0.74677017     0.00600
C278        C  0.22218242  0.96914084  0.73032507     0.03200
C279        C  0.19000669  0.98097603  0.71014579    -0.19700
C280        C  0.18767367  0.02043694  0.71429852    -0.19900
C281        C  0.21847181  0.03076933  0.73690317     0.03100
H282        H  0.17066477  0.96304931  0.69388895     0.16900
H283        H  0.16631715  0.03945615  0.70171076     0.16900
N284        N  0.46544868  0.95674255  0.84506313    -0.32500
N285        N  0.54932640  0.95730766  0.84873362    -0.53100
N286        N  0.54989865  0.04121269  0.84868491    -0.32500
N287        N  0.46585771  0.04042964  0.84333810    -0.53100
C288        C  0.47356548  0.91945117  0.83710364     0.31100
C289        C  0.42927454  0.96390999  0.83232278     0.31100
C290        C  0.58729241  0.03383267  0.83932491     0.31100
C291        C  0.54285085  0.07846569  0.83927415     0.31100
C292        C  0.54366796  0.91904548  0.85273652     0.39700
C293        C  0.58766453  0.96302777  0.85188604     0.39700
C294        C  0.42729930  0.03475853  0.84302711     0.39700
C295        C  0.47110153  0.07869370  0.84727407     0.39700
C296        C  0.44163676  0.90241722  0.82057435    -0.17800
C297        C  0.41378473  0.93042994  0.81751116    -0.17800
C298        C  0.60457049  0.06726132  0.82550012    -0.17800
C299        C  0.57661106  0.09541565  0.82559736    -0.17800
C300        C  0.57850573  0.90044901  0.85946836    -0.18900
C301        C  0.60641643  0.92832446  0.85877775    -0.18900
C302        C  0.40791617  0.06949749  0.84736425    -0.18900
C303        C  0.43565263  0.09732934  0.85018708    -0.18900
C304        C  0.50895162  0.90025215  0.84392230    -0.14200
C305        C  0.40956440  0.99960898  0.83386250    -0.14200
C306        C  0.50675896  0.09753642  0.84191658    -0.14200
C307        C  0.60636861  0.99786978  0.84265994    -0.14200
H308        H  0.43879211  0.87296450  0.81104352     0.18700
H309        H  0.38546484  0.92658129  0.80529444     0.18700
H310        H  0.63416237  0.07095282  0.81581087     0.18700
H311        H  0.58056716  0.12482542  0.81580502     0.18700
H312        H  0.58353829  0.86978272  0.86242625     0.17000
H313        H  0.63717318  0.92342233  0.86127766     0.17000
H314        H  0.37704480  0.07443739  0.84700198     0.17000
H315        H  0.43032279  0.12799632  0.85221552     0.17000
H316        H  0.48264347  0.97538001  0.86058428     0.30200
H317        H  0.53077941  0.02260146  0.86257387     0.30200
N318        N  0.49709646  0.25729468  0.74172638     0.00600
C319        C  0.46515003  0.27381428  0.72735057     0.03200
C320        C  0.47466436  0.29898717  0.69760897    -0.19700
C321        C  0.51443507  0.29743451  0.69365045    -0.19900
C322        C  0.52707047  0.27129616  0.72111068     0.03100
H323        H  0.45497348  0.31594667  0.68028376     0.16900
H324        H  0.53195930  0.31313524  0.67280853     0.16900
Zn325      Zn  0.27709130  0.28544499  0.78047565     1.49700
Zn326      Zn  0.21225610  0.22078305  0.78249482     1.49400
Zn327      Zn  0.21695271  0.27929673  0.71167357     1.49100
Zn328      Zn  0.28162249  0.21409490  0.72307318     1.49500
O329        O  0.24698040  0.25009928  0.74932947    -1.80000
O330        O  0.26902272  0.27512092  0.83739980    -0.70700
O331        O  0.15746831  0.23684707  0.77455977    -0.70500
O332        O  0.22933242  0.33542410  0.71484799    -0.70000
O333        O  0.22560812  0.22797389  0.83793828    -0.70700
O334        O  0.26662542  0.34092387  0.76649886    -0.70300
O335        O  0.15975039  0.27370297  0.72152892    -0.70900
O336        O  0.27819552  0.22137207  0.66604184    -0.70300
O337        O  0.21581638  0.16418997  0.77180265    -0.71000
O338        O  0.23101446  0.26421709  0.65728028    -0.70400
O339        O  0.26819754  0.15894864  0.73426180    -0.70900
O340        O  0.33702681  0.22441501  0.73457093    -0.70800
O341        O  0.33340120  0.27806695  0.76928916    -0.70600
C342        C  0.24844585  0.25032547  0.85526358     0.81200
C343        C  0.14100754  0.25692139  0.74863120     0.81700
C344        C  0.24878885  0.35561879  0.73798228     0.80700
C345        C  0.25717215  0.24187239  0.64418155     0.81000
C346        C  0.24010778  0.14402003  0.75287472     0.82200
C347        C  0.35278394  0.25260718  0.75128455     0.81200
N348        N  0.25964014  0.75626330  0.98522442     0.00600
C349        C  0.27779689  0.77249902  0.95464203     0.03200
C350        C  0.30511003  0.79844385  0.96677294    -0.19700
C351        C  0.30355483  0.79778797  0.00678147    -0.19900
C352        C  0.27537335  0.77147511  0.01703171     0.03100
H353        H  0.32419245  0.81561863  0.94869449     0.16900
H354        H  0.32120071  0.81436067  0.02611962     0.16900
N355        N  0.25050094  0.49928664  0.72362039     0.00600
C356        C  0.26508747  0.46739394  0.70695784     0.03200
C357        C  0.29016733  0.47711883  0.67709906    -0.19700
C358        C  0.29106666  0.51691493  0.67581109    -0.19900
C359        C  0.26650738  0.52950442  0.70495174     0.03100
H360        H  0.30661559  0.45760058  0.65893084     0.16900
H361        H  0.30838393  0.53457333  0.65644807     0.16900
N362        N  0.24891018  0.23779119  0.00000623     0.00600
C363        C  0.26546529  0.22342039  0.96775578     0.03200
C364        C  0.29172000  0.19482508  0.97693129    -0.19700
C365        C  0.29137434  0.19189863  0.01682071    -0.19900
C366        C  0.26487127  0.21880959  0.02994674     0.03100
H367        H  0.30958270  0.17846015  0.95699996     0.16900
H368        H  0.30905094  0.17290253  0.03423643     0.16900
N369        N  0.14581702  0.45530490  0.94713967    -0.32500
N370        N  0.14998953  0.53926982  0.94500439    -0.53100
N371        N  0.14990856  0.54240349  0.02908125    -0.32500
N372        N  0.14693106  0.45868024  0.03132472    -0.53100
C373        C  0.15581598  0.46122952  0.90955822     0.31100
C374        C  0.15456935  0.41818127  0.95578637     0.31100
C375        C  0.16172212  0.57851432  0.02012880     0.31100
C376        C  0.15991080  0.53548355  0.06625212     0.31100
C377        C  0.14683535  0.53259509  0.90673188     0.39700
C378        C  0.14901629  0.57789984  0.94931933     0.39700
C379        C  0.14277936  0.42031315  0.02708705     0.39700
C380        C  0.14419609  0.46562177  0.06966383     0.39700
C381        C  0.16924252  0.42700074  0.89370305    -0.17800
C382        C  0.16848525  0.39989689  0.92282770    -0.17800
C383        C  0.17807636  0.59513972  0.05240654    -0.17800
C384        C  0.17693421  0.56802837  0.08145393    -0.17800
C385        C  0.14298979  0.56716103  0.88671142    -0.18900
C386        C  0.14437832  0.59586602  0.91370649    -0.18900
C387        C  0.13650520  0.40288696  0.06283939    -0.18900
C388        C  0.13732318  0.43161590  0.08982212    -0.18900
C389        C  0.15375597  0.49665101  0.88917331    -0.14200
C390        C  0.15085951  0.40031757  0.99257268    -0.14200
C391        C  0.15416449  0.50072561  0.08697957    -0.14200
C392        C  0.15823570  0.59705103  0.98378122    -0.14200
H393        H  0.17929971  0.42214512  0.86434631     0.18700
H394        H  0.17781281  0.37023128  0.92011698     0.18700
H395        H  0.19015502  0.62369121  0.05474650     0.18700
H396        H  0.18794827  0.57175941  0.11035296     0.18700
H397        H  0.14131050  0.57132930  0.85569520     0.17000
H398        H  0.14397736  0.62648537  0.90761192     0.17000
H399        H  0.13355020  0.37242766  0.06898940     0.17000
H400        H  0.13518829  0.42764932  0.12087977     0.17000
H401        H  0.13202633  0.47492931  0.96524064     0.30200
H402        H  0.13368145  0.52450896  0.01171755     0.30200
N403        N  0.24270941  0.49543099  0.25509378     0.00600
C404        C  0.25826047  0.52637350  0.27210897     0.03200
C405        C  0.28121703  0.51506842  0.30258389    -0.19700
C406        C  0.27981663  0.47532389  0.30393996    -0.19900
C407        C  0.25603295  0.46426574  0.27426213     0.03100
H408        H  0.29780768  0.53350563  0.32114945     0.16900
H409        H  0.29524883  0.45662144  0.32367089     0.16900
N410        N  0.49759720  0.74909086  0.22747071     0.00600
C411        C  0.52946334  0.73558042  0.20931341     0.03200
C412        C  0.51938605  0.71108799  0.17981479    -0.19700
C413        C  0.47948919  0.70994390  0.17989234    -0.19900
C414        C  0.46712878  0.73379191  0.20943187     0.03100
H415        H  0.53875688  0.69615886  0.16013702     0.16900
H416        H  0.46159738  0.69397312  0.16027376     0.16900
N417        N  0.76770749  0.00666718  0.26078325     0.00600
C418        C  0.78649650  0.97531425  0.24735848     0.03200
C419        C  0.82004737  0.98599187  0.22818774    -0.19700
C420        C  0.82159453  0.02569600  0.22981040    -0.19900
C421        C  0.78892781  0.03739526  0.24991241     0.03100
H422        H  0.84045094  0.96718999  0.21358556     0.16900
H423        H  0.84339267  0.04396513  0.21666598     0.16900
N424        N  0.22205858  0.99437634  0.25904161     0.00600
C425        C  0.20269594  0.96449922  0.24411481     0.03200
C426        C  0.17135965  0.97771534  0.22341284    -0.19700
C427        C  0.17195824  0.01745924  0.22559372    -0.19900
C428        C  0.20362738  0.02664760  0.24752756     0.03100
H429        H  0.15120746  0.96055276  0.20731478     0.16900
H430        H  0.15237112  0.03735045  0.21155204     0.16900
N431        N  0.53590139  0.96028063  0.34184532    -0.32500
N432        N  0.45187443  0.95937514  0.34302786    -0.53100
N433        N  0.44883849  0.04291536  0.34765224    -0.32500
N434        N  0.53308902  0.04355789  0.34559638    -0.53100
C435        C  0.52921967  0.92397267  0.32979295     0.31100
C436        C  0.57261276  0.96900103  0.33130516     0.31100
C437        C  0.41199470  0.03524524  0.33772018     0.31100
C438        C  0.45550422  0.08028994  0.33851338     0.31100
C439        C  0.45865642  0.92106344  0.34417649     0.39700
C440        C  0.41333087  0.96406382  0.34712807     0.39700
C441        C  0.57166759  0.03852151  0.34802352     0.39700
C442        C  0.52629520  0.08150833  0.35056009     0.39700
C443        C  0.56243293  0.90907387  0.31255655    -0.17800
C444        C  0.58978485  0.93745286  0.31352731    -0.17800
C445        C  0.39458602  0.06854080  0.32374170    -0.17800
C446        C  0.42202373  0.09691601  0.32417877    -0.17800
C447        C  0.42433535  0.90131514  0.34978614    -0.18900
C448        C  0.39559560  0.92857523  0.35166355    -0.18900
C449        C  0.58943459  0.07330445  0.35549763    -0.18900
C450        C  0.56066735  0.10057871  0.35705177    -0.18900
C451        C  0.49418613  0.90369442  0.33414165    -0.14200
C452        C  0.59124937  0.00443889  0.33755095    -0.14200
C453        C  0.49091561  0.09985186  0.34248399    -0.14200
C454        C  0.39363245  0.99906835  0.34064936    -0.14200
H455        H  0.56651562  0.88079747  0.30014191     0.18700
H456        H  0.61889358  0.93517973  0.30199121     0.18700
H457        H  0.36533431  0.07194465  0.31356732     0.18700
H458        H  0.41786514  0.12633773  0.31447884     0.18700
H459        H  0.42024160  0.87043673  0.35052634     0.17000
H460        H  0.36497915  0.92283868  0.35414869     0.17000
H461        H  0.62006741  0.07877075  0.35757148     0.17000
H462        H  0.56475976  0.13123385  0.36053493     0.17000
H463        H  0.51745001  0.97701646  0.35878454     0.30200
H464        H  0.46762879  0.02434524  0.36188121     0.30200
N465        N  0.49853985  0.25369409  0.23346558     0.00600
C466        C  0.52942845  0.26940865  0.21553278     0.03200
C467        C  0.51780105  0.29318577  0.18557369    -0.19700
C468        C  0.47791738  0.29156548  0.18514783    -0.19900
C469        C  0.46719322  0.26684688  0.21484655     0.03100
H470        H  0.53616748  0.30953069  0.16601100     0.16900
H471        H  0.45901678  0.30642792  0.16523137     0.16900
N472        N  0.72917184  0.23656161  0.49368909     0.00600
C473        C  0.71080830  0.25443845  0.46456050     0.03200
C474        C  0.68141557  0.27757887  0.47877006    -0.19700
C475        C  0.68226944  0.27383741  0.51859448    -0.19900
C476        C  0.71211717  0.24859031  0.52660256     0.03100
H477        H  0.66258018  0.29624789  0.46224954     0.16900
H478        H  0.66428358  0.28907160  0.53931409     0.18500
N479        N  0.99588631  0.25560217  0.75160100     0.00600
C480        C  0.02645064  0.27383179  0.76652104     0.03200
C481        C  0.01442364  0.30183973  0.79222019    -0.19700
C482        C  0.97459349  0.30089478  0.79270175    -0.19900
C483        C  0.96429077  0.27233905  0.76729818     0.03100
H484        H  0.03249655  0.32117151  0.80832415     0.16900
H485        H  0.95537521  0.31941169  0.80916064     0.16900
N486        N  0.99955206  0.25869679  0.23880882     0.00600
C487        C  0.96982509  0.27737599  0.22223702     0.03200
C488        C  0.98325498  0.30527871  0.19680918    -0.19700
C489        C  0.02308292  0.30367188  0.19827979    -0.19900
C490        C  0.03195043  0.27488406  0.22454090     0.03100
H491        H  0.96611108  0.32510118  0.17977818     0.16900
H492        H  0.04318208  0.32197370  0.18263174     0.16900
N493        N  0.04162279  0.14674273  0.45548167    -0.32500
N494        N  0.95781420  0.14684331  0.45407444    -0.53100
N495        N  0.95353861  0.14351335  0.53822394    -0.32500
N496        N  0.03740694  0.14390558  0.53952491    -0.53100
C497        C  0.03542831  0.15879733  0.41872068     0.31100
C498        C  0.07803319  0.15698718  0.46449307     0.31100
C499        C  0.91691822  0.15408261  0.52977402     0.31100
C500        C  0.95963447  0.15338491  0.57549242     0.31100
C501        C  0.96512371  0.14512000  0.41565159     0.39700
C502        C  0.91925769  0.14312251  0.45864114     0.39700
C503        C  0.07599454  0.14045768  0.53470756     0.39700
C504        C  0.03009330  0.13945146  0.57775751     0.39700
C505        C  0.06870264  0.17565192  0.40379325    -0.17800
C506        C  0.09556967  0.17450784  0.43264488    -0.17800
C507        C  0.89909979  0.16935862  0.56246579    -0.17800
C508        C  0.92604053  0.16898001  0.59125840    -0.17800
C509        C  0.93113738  0.13948497  0.39574102    -0.18900
C510        C  0.90205090  0.13820777  0.42300274    -0.18900
C511        C  0.09323586  0.13267817  0.56993526    -0.18900
C512        C  0.06411443  0.13209806  0.59725546    -0.18900
C513        C  0.00069767  0.15489443  0.39816917    -0.14200
C514        C  0.09604366  0.15073721  0.50047784    -0.14200
C515        C  0.99459989  0.14883361  0.59572721    -0.14200
C516        C  0.89904894  0.15040724  0.49345896    -0.14200
H517        H  0.07309658  0.18796111  0.37521388     0.18700
H518        H  0.12458673  0.18578338  0.43047646     0.18700
H519        H  0.86988829  0.18030772  0.56519405     0.18700
H520        H  0.92146384  0.17948978  0.62037944     0.18700
H521        H  0.92746788  0.13838333  0.36470133     0.17000
H522        H  0.87153600  0.13594185  0.41711314     0.17000
H523        H  0.12377832  0.12987897  0.57563838     0.17000
H524        H  0.06775975  0.12875422  0.62817172     0.17000
H525        H  0.02305430  0.13013057  0.47247893     0.30200
H526        H  0.97242439  0.12830396  0.52030942     0.30200
N527        N  0.26856418  0.23160585  0.50046928     0.00600
C528        C  0.28791597  0.24538485  0.53080236     0.03200
C529        C  0.31996041  0.26571255  0.51834993    -0.19700
C530        C  0.31984108  0.26444472  0.47837401    -0.19900
C531        C  0.28774844  0.24338679  0.46849683     0.03100
H532        H  0.34034152  0.28079848  0.53615502     0.16900
H533        H  0.34006494  0.27844423  0.45880316     0.16900
Zn534      Zn  0.22168204  0.27754315  0.21512926     1.49700
Zn535      Zn  0.27967005  0.20568680  0.22211856     1.49400
Zn536      Zn  0.28362999  0.27511900  0.28004447     1.49100
Zn537      Zn  0.21304488  0.21752996  0.28569254     1.49500
O538        O  0.24916844  0.24363598  0.25061596    -1.80000
O539        O  0.23432083  0.26512361  0.15974951    -0.70700
O540        O  0.33697590  0.21550156  0.22665618    -0.70500
O541        O  0.26945185  0.33089100  0.27665211    -0.70000
O542        O  0.26930975  0.21141996  0.16560105    -0.70700
O543        O  0.23083651  0.33391734  0.22581562    -0.70300
O544        O  0.33784303  0.26975936  0.26057159    -0.70900
O545        O  0.22857596  0.22448389  0.34150336    -0.70300
O546        O  0.26469219  0.15113980  0.23663213    -0.71000
O547        O  0.28193278  0.25973808  0.33549678    -0.70400
O548        O  0.21398184  0.16063332  0.27577187    -0.70900
O549        O  0.15811735  0.23514671  0.27620982    -0.70800
O550        O  0.16527697  0.27008177  0.22222175    -0.70600
C551        C  0.25232569  0.23666186  0.14508222     0.81200
C552        C  0.35484771  0.24404847  0.24063780     0.81700
C553        C  0.24929039  0.35003189  0.25278178     0.80700
C554        C  0.25791902  0.24070507  0.35591536     0.81000
C555        C  0.23629462  0.13847091  0.25663685     0.82200
C556        C  0.14418591  0.25429925  0.24802408     0.81200
C557        C  0.26479475  0.23781101  0.39646672    -0.09200
C558        C  0.27438793  0.23865890  0.42973101    -0.10800
C559        C  0.23408223  0.21056007  0.50199572    -0.14400
C560        C  0.20430871  0.19288528  0.50339997     0.09600
C561        C  0.16841679  0.17405851  0.50423593     0.11500
C562        C  0.13630642  0.16104958  0.50343155    -0.15300
C563        C  0.07028727  0.26501622  0.23650186    -0.09200
C564        C  0.10339848  0.25857909  0.24435137    -0.10800
C565        C  0.00014405  0.16771443  0.35823576    -0.14400
C566        C  0.99884656  0.18353334  0.32716937     0.09600
C567        C  0.99749185  0.20703785  0.29385038     0.11500
C568        C  0.99759892  0.23016167  0.26774380    -0.15300
C569        C  0.99661889  0.22646571  0.72355099    -0.14400
C570        C  0.99672685  0.20260038  0.69839074     0.09600
C571        C  0.99623475  0.17795125  0.66612966     0.11500
C572        C  0.99547460  0.16140855  0.63560915    -0.15300
C573        C  0.85861762  0.16060889  0.49090697    -0.14400
C574        C  0.82646810  0.17377417  0.48947901     0.09600
C575        C  0.79091202  0.19353899  0.48932523     0.11500
C576        C  0.76202905  0.21288593  0.49073167    -0.15300
C577        C  0.42816594  0.25617940  0.22438817    -0.09200
C578        C  0.39512152  0.24870335  0.23234964    -0.10800
C579        C  0.49868982  0.22682480  0.26401456    -0.14400
C580        C  0.49747653  0.20231509  0.28878857     0.09600
C581        C  0.49481341  0.17034648  0.31392803     0.11500
C582        C  0.49250588  0.13979497  0.33042350    -0.15300
C583        C  0.22770308  0.09813874  0.25616851    -0.09200
C584        C  0.21736237  0.06520012  0.25349331    -0.10800
C585        C  0.25603595  0.99274102  0.28071780    -0.14400
C586        C  0.28549925  0.99290310  0.29880628     0.09600
C587        C  0.32121299  0.99479554  0.31770193     0.11500
C588        C  0.35327245  0.99693610  0.33053597    -0.15300
C589        C  0.73214404  0.00735891  0.28075775    -0.14400
C590        C  0.70143804  0.00790601  0.29749575     0.09600
C591        C  0.66457024  0.00795426  0.31522636     0.11500
C592        C  0.63188906  0.00697689  0.32751057    -0.15300
C593        C  0.49627257  0.77628236  0.25727621    -0.14400
C594        C  0.49505493  0.80113398  0.28131267     0.09600
C595        C  0.49391548  0.83346844  0.30555395     0.11500
C596        C  0.49363634  0.86408321  0.32159209    -0.15300
C597        C  0.24768682  0.39101759  0.25682975    -0.09200
C598        C  0.24957388  0.42492559  0.26350634    -0.10800
C599        C  0.16504663  0.49964062  0.12729032    -0.14400
C600        C  0.17881750  0.49826339  0.15908732     0.09600
C601        C  0.19916195  0.49664480  0.19409406     0.11500
C602        C  0.21881963  0.49573286  0.22256893    -0.15300
C603        C  0.25758086  0.22706925  0.06993756    -0.09200
C604        C  0.25391407  0.23263888  0.10404146    -0.10800
C605        C  0.16242209  0.36028448  0.99611474    -0.14400
C606        C  0.17754283  0.32909123  0.99909130     0.09600
C607        C  0.20009352  0.29525129  0.00146193     0.11500
C608        C  0.22203708  0.26821738  0.00170731    -0.15300
C609        C  0.16591624  0.49709717  0.84893239    -0.14400
C610        C  0.18122505  0.49838069  0.81748100     0.09600
C611        C  0.20354854  0.49996793  0.78317191     0.11500
C612        C  0.22483827  0.50037090  0.75537478    -0.15300
C613        C  0.23172578  0.72713276  0.98392676    -0.14400
C614        C  0.20919633  0.70093942  0.98224788     0.09600
C615        C  0.18619016  0.66767876  0.98066851     0.11500
C616        C  0.17066080  0.63673760  0.98093580    -0.15300
C617        C  0.06605887  0.26622808  0.75655818    -0.09200
C618        C  0.10005190  0.26147910  0.75097472    -0.10800
C619        C  0.26495286  0.24118492  0.60359482    -0.09200
C620        C  0.27497980  0.24234160  0.57023458    -0.10800
C621        C  0.25749278  0.42878442  0.72009428    -0.09200
C622        C  0.25239315  0.39592714  0.73008044    -0.10800
C623        C  0.25266179  0.24549801  0.89601614    -0.09200
C624        C  0.25786668  0.23679036  0.92924269    -0.10800
C625        C  0.42658182  0.26452875  0.73947291    -0.09200
C626        C  0.39345700  0.25754156  0.74718378    -0.10800
C627        C  0.49879262  0.22865030  0.77050472    -0.14400
C628        C  0.50082313  0.20270156  0.79362065     0.09600
C629        C  0.50349181  0.16929382  0.81666395     0.11500
C630        C  0.50542424  0.13789441  0.83142626    -0.15300
C631        C  0.22805837  0.06975703  0.74618738    -0.09200
C632        C  0.23463661  0.10332365  0.75100656    -0.10800
C633        C  0.36987831  0.00071629  0.82090757    -0.14400
C634        C  0.33829369  0.00051921  0.80661030     0.09600
C635        C  0.30281744  0.99960384  0.78695736     0.11500
C636        C  0.27338415  0.99914388  0.76869399    -0.15300
C637        C  0.50889314  0.76906013  0.77440681    -0.14400
C638        C  0.51002259  0.79503998  0.79719031     0.09600
C639        C  0.51124661  0.82837180  0.82001099     0.11500
C640        C  0.51105071  0.85980992  0.83438824    -0.15300
C641        C  0.64637753  0.99559969  0.83011724    -0.14400
C642        C  0.67776873  0.99384919  0.81480840     0.09600
C643        C  0.71254070  0.99293453  0.79319562     0.11500
C644        C  0.74137977  0.99384922  0.77338003    -0.15300
C645        C  0.77738615  0.06776149  0.74628535    -0.09200
C646        C  0.76603625  0.10046126  0.74937968    -0.10800
C647        C  0.73623549  0.23655616  0.59750486    -0.09200
C648        C  0.72613000  0.24034162  0.56460390    -0.10800
C649        C  0.56645888  0.26006929  0.72693531    -0.09200
C650        C  0.59965318  0.25206129  0.73276434    -0.10800
C651        C  0.92525926  0.26339939  0.75760713    -0.09200
C652        C  0.89169274  0.25805633  0.75138082    -0.10800
C653        C  0.76909047  0.11061946  0.25577122    -0.09200
C654        C  0.77735059  0.07692504  0.25465838    -0.10800
C655        C  0.72285786  0.25299718  0.42483001    -0.09200
C656        C  0.73210803  0.25337737  0.39125932    -0.10800
C657        C  0.56891359  0.26190186  0.22550294    -0.09200
C658        C  0.60255370  0.25724592  0.23251840    -0.10800
C659        C  0.89577193  0.26694644  0.23698891    -0.09200
C660        C  0.92982632  0.27078204  0.23116830    -0.10800
C661        C  0.75341721  0.40305360  0.25363216    -0.09200
C662        C  0.75270978  0.43675982  0.26156002    -0.10800
C663        C  0.79059299  0.50616215  0.22476353    -0.14400
C664        C  0.81304570  0.50601572  0.19791875     0.09600
C665        C  0.83515561  0.50661873  0.16349799     0.11500
C666        C  0.84813870  0.50771947  0.13106467    -0.15300
C667        C  0.73334936  0.24060203  0.06566927    -0.09200
C668        C  0.74020496  0.24642836  0.09913335    -0.10800
C669        C  0.72590796  0.24602298  0.92464290    -0.09200
C670        C  0.73069605  0.25133741  0.89046949    -0.10800
C671        C  0.82449203  0.37053961  0.99926936    -0.14400
C672        C  0.81003634  0.33910216  0.99901950     0.09600
C673        C  0.78761735  0.30553241  0.99652498     0.11500
C674        C  0.76530761  0.27916019  0.99487633    -0.15300
C675        C  0.73736842  0.42737360  0.71447454    -0.09200
C676        C  0.74154879  0.39374499  0.72255032    -0.10800
C677        C  0.81197071  0.50732297  0.85480066    -0.14400
C678        C  0.79990262  0.50442022  0.82251733     0.09600
C679        C  0.78257154  0.50011210  0.78631070     0.11500
C680        C  0.76538426  0.49785897  0.75645699    -0.15300
C681        C  0.82787329  0.64765105  0.98881804    -0.14400
C682        C  0.81382016  0.67939563  0.98853621     0.09600
C683        C  0.79231867  0.71385356  0.98823583     0.11500
C684        C  0.77082068  0.74114001  0.98754984    -0.15300
C685        C  0.74089811  0.77275267  0.08968516    -0.09200
C686        C  0.73508246  0.78041998  0.05622982    -0.10800
C687        C  0.60210755  0.75195486  0.22427070    -0.09200
C688        C  0.56847784  0.74582114  0.21852237    -0.10800
C689        C  0.75033456  0.57702136  0.25527660    -0.09200
C690        C  0.75179920  0.61049014  0.24605604    -0.10800
C691        C  0.76311820  0.90309262  0.24797478    -0.09200
C692        C  0.77224458  0.93648088  0.24931249    -0.10800
C693        C  0.25755483  0.75452065  0.08956746    -0.09200
C694        C  0.26488139  0.76136249  0.05611570    -0.10800
C695        C  0.39326294  0.74661379  0.22443023    -0.09200
C696        C  0.42732229  0.74198916  0.21866680    -0.10800
C697        C  0.25063994  0.59911996  0.25073021    -0.09200
C698        C  0.25339897  0.56556070  0.25927060    -0.10800
C699        C  0.22425229  0.89135970  0.24414907    -0.09200
C700        C  0.21513479  0.92487579  0.24556355    -0.10800
C701        C  0.27492132  0.74573960  0.41500905    -0.09200
C702        C  0.26340938  0.74793138  0.38232688    -0.10800
C703        C  0.14710179  0.83414268  0.48856680    -0.14400
C704        C  0.17959834  0.82182879  0.48913644     0.09600
C705        C  0.21514231  0.80210390  0.48862919     0.11500
C706        C  0.24379680  0.78245078  0.48729156    -0.15300
C707        C  0.06792063  0.71935207  0.21739274    -0.09200
C708        C  0.10102042  0.72540089  0.22556136    -0.10800
C709        C  0.92745595  0.73102864  0.21674472    -0.09200
C710        C  0.89466549  0.73988939  0.22469668    -0.10800
C711        C  0.99945386  0.75329989  0.25822755    -0.14400
C712        C  0.00122817  0.77298446  0.28661569     0.09600
C713        C  0.00361576  0.79456796  0.32075850     0.11500
C714        C  0.00539684  0.81065156  0.35138222    -0.15300
C715        C  0.01070896  0.82739782  0.62669668    -0.14400
C716        C  0.01083327  0.81080779  0.65741844     0.09600
C717        C  0.00938965  0.78556532  0.68949777     0.11500
C718        C  0.00831034  0.76078372  0.71403806    -0.15300
C719        C  0.72432590  0.75127996  0.41692191    -0.09200
C720        C  0.73171848  0.75553063  0.38301891    -0.10800
C721        C  0.76879564  0.77899783  0.48566032    -0.14400
C722        C  0.79845846  0.79677732  0.48594501     0.09600
C723        C  0.83481138  0.81441420  0.48760492     0.11500
C724        C  0.86744061  0.82590784  0.48886014    -0.15300
C725        C  0.07890950  0.72291559  0.74592888    -0.09200
C726        C  0.11206276  0.73133756  0.73961484    -0.10800
C727        C  0.26109273  0.56912593  0.71547476    -0.09200
C728        C  0.25856222  0.60290337  0.72262247    -0.10800
C729        C  0.40422446  0.74265906  0.74185764    -0.09200
C730        C  0.43798831  0.73522022  0.73858482    -0.10800
C731        C  0.27964868  0.75554596  0.58878060    -0.09200
C732        C  0.28809137  0.75220544  0.55506371    -0.10800
C733        C  0.26421296  0.75681715  0.88157120    -0.09200
C734        C  0.27014109  0.76351287  0.91503115    -0.10800
C735        C  0.24316956  0.89611575  0.73401673    -0.09200
C736        C  0.23523437  0.92987730  0.73283828    -0.10800
C737        C  0.57822176  0.73722725  0.73327346    -0.09200
C738        C  0.61160154  0.74544301  0.73671748    -0.10800
C739        C  0.74430964  0.60122785  0.72459512    -0.09200
C740        C  0.73788779  0.56837503  0.71568309    -0.10800
C741        C  0.74344969  0.75014669  0.59067105    -0.09200
C742        C  0.73301720  0.74677624  0.55777791    -0.10800
C743        C  0.74334186  0.76254685  0.88294883    -0.09200
C744        C  0.73610296  0.77292477  0.91541181    -0.10800
C745        C  0.77679591  0.89408025  0.73569369    -0.09200
C746        C  0.78469937  0.92781659  0.73575545    -0.10800
C747        C  0.90406973  0.72723005  0.74210374    -0.09200
C748        C  0.93781020  0.72066314  0.74717851    -0.10800
loop_ 
_geom_bond_atom_site_label_1 
_geom_bond_atom_site_label_2 
_geom_bond_distance 
_geom_bond_site_symmetry_2 
_ccdc_geom_bond_type 
Zn1           O5   1.940       .  S
Zn1           O6   2.006       .  S
Zn1          O10   2.003       .  S
Zn1          O17   2.000       .  S
Zn2           O5   1.951       .  S
Zn2           O7   2.012       .  S
Zn2           O9   2.026       .  S
Zn2          O13   2.017       .  S
Zn3           O5   1.954       .  S
Zn3           O8   2.018       .  S
Zn3          O11   2.024       .  S
Zn3          O14   1.984       .  S
Zn4           O5   1.958       .  S
Zn4          O12   2.015       .  S
Zn4          O15   2.003       .  S
Zn4          O16   2.028       .  S
O6           C18   1.272       .  A
O7           C19   1.271       .  A
O8           C20   1.272       .  A
O9           C18   1.274       .  A
O10          C20   1.270       .  A
O11          C19   1.273       .  A
O12          C21   1.272       .  A
O13          C22   1.272       .  A
O14          C21   1.267       .  A
O15          C22   1.270       .  A
O16          C23   1.273       .  A
O17          C23   1.270       .  A
C18         C747   1.433       .  S
C19         C739   1.436       .  S
C20         C743   1.431       .  S
C21         C738   1.425       .  S
C22         C741   1.431       .  S
C23         C745   1.433       .  S
Zn24         O28   1.949       .  S
Zn24         O29   1.993       .  S
Zn24         O33   2.014       .  S
Zn24         O40   2.006       .  S
Zn25         O28   1.953       .  S
Zn25         O30   2.010       .  S
Zn25         O32   2.013       .  S
Zn25         O36   2.021       .  S
Zn26         O28   1.948       .  S
Zn26         O31   2.003       .  S
Zn26         O34   2.016       .  S
Zn26         O37   2.019       .  S
Zn27         O28   1.937       .  S
Zn27         O35   2.005       .  S
Zn27         O38   2.003       .  S
Zn27         O39   2.001       .  S
O29          C41   1.269       .  A
O30          C42   1.271       .  A
O31          C43   1.270       .  A
O32          C41   1.272       .  A
O33          C43   1.272       .  A
O34          C42   1.273       .  A
O35          C44   1.271       .  A
O36          C45   1.273       .  A
O37          C44   1.273       .  A
O38          C45   1.271       .  A
O39          C46   1.270       .  A
O40          C46   1.270       .  A
C41         C729   1.426       .  S
C42         C731   1.432       .  S
C43         C728   1.430       .  S
C44         C726   1.431       .  S
C45         C735   1.431       .  S
C46         C733   1.427       .  S
N47          C51   1.346       .  A
N47          C48   1.345       .  A
N47         C721   1.402       .  S
C48         C742   1.438       .  S
C48          C49   1.382       .  A
C49          C50   1.384       .  A
C49          H52   1.082       .  S
C50          C51   1.382       .  A
C50          H53   1.082       .  S
C51         C719   1.438       .  S
N54          C58   1.346       .  A
N54          C55   1.348   1_455  A
N54         C718   1.404       .  S
C55         C748   1.439       .  S
C55          C56   1.382       .  A
C56          C57   1.383   1_655  A
C56          H59   1.082       .  S
C57          C58   1.381       .  A
C57          H60   1.082       .  S
C58         C725   1.438       .  S
N61          C65   1.345   1_655  A
N61          C62   1.345       .  A
N61         C711   1.402       .  S
C62         C709   1.439       .  S
C62          C63   1.382       .  A
C63          C64   1.385   1_655  A
C63          H66   1.082       .  S
C64          C65   1.382       .  A
C64          H67   1.082       .  S
C65         C707   1.439       .  S
N68          C73   1.354       .  A
N68          C72   1.353       .  A
N68         H100   1.039       .  S
N69          C76   1.350       .  A
N69          C77   1.350       .  A
N70          C75   1.354       .  A
N70          C74   1.354       .  A
N70         H101   1.039       .  S
N71          C78   1.350       .  A
N71          C79   1.350       .  A
C72          C80   1.389       .  A
C72          C88   1.414       .  A
C73          C89   1.412       .  A
C73          C81   1.387       .  A
C74          C82   1.389       .  A
C74          C91   1.414   1_655  A
C75          C90   1.412       .  A
C75          C83   1.387       .  A
C76          C88   1.410       .  A
C76          C84   1.387       .  A
C77          C91   1.409       .  A
C77          C85   1.386       .  A
C78          C86   1.386       .  A
C78          C89   1.407   1_655  A
C79          C87   1.387       .  A
C79          C90   1.408       .  A
C80          C81   1.372       .  A
C80          H92   1.082       .  S
C81          H93   1.082       .  S
C82          C83   1.372       .  A
C82          H94   1.082       .  S
C83          H95   1.082       .  S
C84          C85   1.372       .  A
C84          H96   1.083       .  S
C85          H97   1.083       .  S
C86          C87   1.370       .  A
C86          H98   1.083       .  S
C87          H99   1.082       .  S
C88         C703   1.446       .  S
C89         C714   1.446       .  S
C90         C724   1.446       .  S
C91         C715   1.448       .  S
N102        C106   1.345       .  A
N102        C103   1.345       .  A
N102        C706   1.403       .  S
C103        C732   1.438       .  S
C103        C104   1.382       .  A
C104        C105   1.384       .  A
C104        H107   1.082       .  S
C105        C106   1.382       .  A
C105        H108   1.082       .  S
C106        C701   1.439       .  S
Zn109       O113   1.953       .  S
Zn109       O114   2.030       .  S
Zn109       O118   2.028       .  S
Zn109       O125   2.005       .  S
Zn110       O113   1.936       .  S
Zn110       O115   2.009       .  S
Zn110       O117   2.000       .  S
Zn110       O121   2.004       .  S
Zn111       O113   1.952       .  S
Zn111       O116   1.998       .  S
Zn111       O119   2.027       .  S
Zn111       O122   2.027       .  S
Zn112       O113   1.949       .  S
Zn112       O120   1.999       .  S
Zn112       O123   2.012       .  S
Zn112       O124   2.018       .  S
O114        C126   1.274       .  A
O115        C127   1.271       .  A
O116        C128   1.270       .  A
O117        C126   1.270       .  A
O118        C128   1.275       .  A
O119        C127   1.273       .  A
O120        C129   1.270       .  A
O121        C130   1.271       .  A
O122        C129   1.274       .  A
O123        C130   1.272       .  A
O124        C131   1.272       .  A
O125        C131   1.270       .  A
C126        C708   1.433       .  S
C127        C699   1.435       .  S
C128        C702   1.432       .  S
C129        C695   1.432       .  S
C130        C693   1.429       .  S
C131        C697   1.431       .  S
Zn132       O136   1.947       .  S
Zn132       O137   2.018       .  S
Zn132       O141   1.996       .  S
Zn132       O148   2.015       .  S
Zn133       O136   1.936       .  S
Zn133       O138   2.003       .  S
Zn133       O140   2.007       .  S
Zn133       O144   2.002       .  S
Zn134       O136   1.951       .  S
Zn134       O139   2.027       .  S
Zn134       O142   2.019       .  S
Zn134       O145   2.001       .  S
Zn135       O136   1.956       .  S
Zn135       O143   2.030       .  S
Zn135       O146   2.032       .  S
Zn135       O147   2.013       .  S
O137        C149   1.272       .  A
O138        C150   1.270       .  A
O139        C151   1.273       .  A
O140        C149   1.271       .  A
O141        C151   1.269       .  A
O142        C150   1.273       .  A
O143        C152   1.274       .  A
O144        C153   1.271       .  A
O145        C152   1.271       .  A
O146        C153   1.274       .  A
O147        C154   1.272       .  A
O148        C154   1.273       .  A
C149        C710   1.432       .  S
C150        C685   1.431       .  S
C151        C690   1.432       .  S
C152        C687   1.433       .  S
C153        C691   1.434       .  S
C154        C720   1.432       .  S
N155        C159   1.345   1_556  A
N155        C156   1.344       .  A
N155        C684   1.403       .  S
C156        C744   1.438       .  S
C156        C157   1.382       .  A
C157        C158   1.385   1_556  A
C157        H160   1.082       .  S
C158        C159   1.382       .  A
C158        H161   1.082       .  S
C159        C686   1.438       .  S
N162        C166   1.347       .  A
N162        C163   1.345       .  A
N162        C680   1.401       .  S
C163        C740   1.443       .  S
C163        C164   1.382       .  A
C164        C165   1.386       .  A
C164        H167   1.082       .  S
C165        C166   1.383       .  A
C165        H168   1.082       .  S
C166        C675   1.443       .  S
N169        C173   1.345   1_556  A
N169        C170   1.347       .  A
N169        C674   1.404       .  S
C170        C669   1.437       .  S
C170        C171   1.382       .  A
C171        C172   1.382   1_556  A
C171        H174   1.082       .  S
C172        C173   1.381       .  A
C172        H175   1.082       .  S
C173        C667   1.436       .  S
N176        C181   1.351       .  A
N176        C180   1.353       .  A
N176        H208   1.040       .  S
N177        C184   1.350       .  A
N177        C185   1.349       .  A
N178        C183   1.354       .  A
N178        C182   1.354       .  A
N178        H209   1.039       .  S
N179        C186   1.350       .  A
N179        C187   1.349       .  A
C180        C188   1.389       .  A
C180        C196   1.411       .  A
C181        C197   1.408       .  A
C181        C189   1.387       .  A
C182        C190   1.388       .  A
C182        C199   1.414       .  A
C183        C198   1.413   1_554  A
C183        C191   1.388       .  A
C184        C196   1.408   1_554  A
C184        C192   1.386       .  A
C185        C199   1.408       .  A
C185        C193   1.388       .  A
C186        C194   1.386       .  A
C186        C197   1.407       .  A
C187        C195   1.387       .  A
C187        C198   1.408       .  A
C188        C189   1.370       .  A
C188        H200   1.082       .  S
C189        H201   1.082       .  S
C190        C191   1.372       .  A
C190        H202   1.082       .  S
C191        H203   1.082       .  S
C192        C193   1.373       .  A
C192        H204   1.082       .  S
C193        H205   1.083       .  S
C194        C195   1.372       .  A
C194        H206   1.082       .  S
C195        H207   1.083       .  S
C196        C671   1.447       .  S
C197        C677   1.443       .  S
C198        C681   1.446       .  S
C199        C666   1.446       .  S
N210        C214   1.347       .  A
N210        C211   1.347       .  A
N210        C663   1.403       .  S
C211        C689   1.439       .  S
C211        C212   1.381       .  A
C212        C213   1.381       .  A
C212        H215   1.082       .  S
C213        C214   1.381       .  A
C213        H216   1.082       .  S
C214        C662   1.438       .  S
Zn217       O221   1.930       .  S
Zn217       O222   2.000       .  S
Zn217       O226   1.996       .  S
Zn217       O233   1.983       .  S
Zn218       O221   1.944       .  S
Zn218       O223   1.993       .  S
Zn218       O225   2.018       .  S
Zn218       O229   2.015       .  S
Zn219       O221   1.951       .  S
Zn219       O224   2.029       .  S
Zn219       O227   2.023       .  S
Zn219       O230   2.001       .  S
Zn220       O221   1.951       .  S
Zn220       O228   2.018       .  S
Zn220       O231   2.009       .  S
Zn220       O232   2.016       .  S
O222        C234   1.270       .  A
O223        C235   1.270       .  A
O224        C236   1.273       .  A
O225        C234   1.272       .  A
O226        C236   1.269       .  A
O227        C235   1.274       .  A
O228        C237   1.273       .  A
O229        C238   1.272       .  A
O230        C237   1.271       .  A
O231        C238   1.271       .  A
O232        C239   1.272       .  A
O233        C239   1.268       .  A
C234        C658   1.431       .  S
C235        C668   1.429       .  S
C236        C661   1.432       .  S
C237        C659   1.429       .  S
C238        C653   1.432       .  S
C239        C656   1.424       .  S
Zn240       O244   1.951       .  S
Zn240       O245   2.021       .  S
Zn240       O249   1.995       .  S
Zn240       O256   2.019       .  S
Zn241       O244   1.940       .  S
Zn241       O246   2.003       .  S
Zn241       O248   2.000       .  S
Zn241       O252   1.993       .  S
Zn242       O244   1.959       .  S
Zn242       O247   2.012       .  S
Zn242       O250   2.025       .  S
Zn242       O253   1.990       .  S
Zn243       O244   1.956       .  S
Zn243       O251   2.008       .  S
Zn243       O254   2.015       .  S
Zn243       O255   2.020       .  S
O245        C257   1.273       .  A
O246        C258   1.269       .  A
O247        C259   1.272       .  A
O248        C257   1.270       .  A
O249        C259   1.270       .  A
O250        C258   1.273       .  A
O251        C260   1.271       .  A
O252        C261   1.270       .  A
O253        C260   1.268       .  A
O254        C261   1.272       .  A
O255        C262   1.271       .  A
O256        C262   1.272       .  A
C257        C670   1.431       .  S
C258        C646   1.433       .  S
C259        C650   1.426       .  S
C260        C647   1.424       .  S
C261        C652   1.427       .  S
C262        C676   1.437       .  S
N263        C267   1.346   1_565  A
N263        C264   1.348       .  A
N263        C644   1.405       .  S
C264        C746   1.439       .  S
C264        C265   1.382       .  A
C265        C266   1.383   1_565  A
C265        H268   1.082       .  S
C266        C267   1.382       .  A
C266        H269   1.082       .  S
C267        C645   1.440       .  S
N270        C274   1.345       .  A
N270        C271   1.344       .  A
N270        C637   1.404       .  S
C271        C737   1.433       .  S
C271        C272   1.381       .  A
C272        C273   1.381       .  A
C272        H275   1.082       .  S
C273        C274   1.381       .  A
C273        H276   1.082       .  S
C274        C730   1.433       .  S
N277        C281   1.347   1_565  A
N277        C278   1.348       .  A
N277        C636   1.407       .  S
C278        C736   1.437       .  S
C278        C279   1.381       .  A
C279        C280   1.381   1_565  A
C279        H282   1.082       .  S
C280        C281   1.381       .  A
C280        H283   1.082       .  S
C281        C631   1.435       .  S
N284        C289   1.355       .  A
N284        C288   1.353       .  A
N284        H316   1.039       .  S
N285        C292   1.350       .  A
N285        C293   1.350       .  A
N286        C291   1.353       .  A
N286        C290   1.355       .  A
N286        H317   1.039       .  S
N287        C294   1.352       .  A
N287        C295   1.350       .  A
C288        C296   1.388       .  A
C288        C304   1.414       .  A
C289        C305   1.413       .  A
C289        C297   1.387       .  A
C290        C298   1.388       .  A
C290        C307   1.414   1_545  A
C291        C306   1.414       .  A
C291        C299   1.388       .  A
C292        C304   1.409       .  A
C292        C300   1.387       .  A
C293        C307   1.408       .  A
C293        C301   1.386       .  A
C294        C302   1.386       .  A
C294        C305   1.409   1_545  A
C295        C303   1.388       .  A
C295        C306   1.411       .  A
C296        C297   1.371       .  A
C296        H308   1.082       .  S
C297        H309   1.082       .  S
C298        C299   1.373       .  A
C298        H310   1.082       .  S
C299        H311   1.082       .  S
C300        C301   1.372       .  A
C300        H312   1.083       .  S
C301        H313   1.083       .  S
C302        C303   1.371       .  A
C302        H314   1.082       .  S
C303        H315   1.083       .  S
C304        C640   1.446       .  S
C305        C633   1.452   1_565  S
C306        C630   1.446       .  S
C307        C641   1.449       .  S
N318        C322   1.343       .  A
N318        C319   1.343       .  A
N318        C627   1.403       .  S
C319        C625   1.433       .  S
C319        C320   1.382       .  A
C320        C321   1.384       .  A
C320        H323   1.082       .  S
C321        C322   1.382       .  A
C321        H324   1.082       .  S
C322        C649   1.433       .  S
Zn325       O329   1.953       .  S
Zn325       O330   2.013       .  S
Zn325       O334   2.015       .  S
Zn325       O341   1.999       .  S
Zn326       O329   1.939       .  S
Zn326       O331   1.997       .  S
Zn326       O333   1.994       .  S
Zn326       O337   2.005       .  S
Zn327       O329   1.951       .  S
Zn327       O332   2.002       .  S
Zn327       O335   2.017       .  S
Zn327       O338   2.008       .  S
Zn328       O329   1.949       .  S
Zn328       O336   1.990       .  S
Zn328       O339   2.007       .  S
Zn328       O340   2.000       .  S
O330        C342   1.272       .  A
O331        C343   1.270       .  A
O332        C344   1.270       .  A
O333        C342   1.270       .  A
O334        C344   1.272       .  A
O335        C343   1.272       .  A
O336        C345   1.268       .  A
O337        C346   1.270       .  A
O338        C345   1.271       .  A
O339        C346   1.270       .  A
O340        C347   1.270       .  A
O341        C347   1.269       .  A
C342        C623   1.426       .  S
C343        C618   1.428       .  S
C344        C622   1.430       .  S
C345        C619   1.425       .  S
C346        C632   1.429       .  S
C347        C626   1.426       .  S
N348        C352   1.346   1_556  A
N348        C349   1.345       .  A
N348        C613   1.405       .  S
C349        C734   1.434       .  S
C349        C350   1.381       .  A
C350        C351   1.383   1_556  A
C350        H353   1.082       .  S
C351        C352   1.382       .  A
C351        H354   1.082       .  S
C352        C694   1.436       .  S
N355        C359   1.346       .  A
N355        C356   1.345       .  A
N355        C612   1.404       .  S
C356        C621   1.437       .  S
C356        C357   1.382       .  A
C357        C358   1.383       .  A
C357        H360   1.082       .  S
C358        C359   1.382       .  A
C358        H361   1.082       .  S
C359        C727   1.436       .  S
N362        C366   1.346       .  A
N362        C363   1.345   1_554  A
N362        C608   1.406       .  S
C363        C624   1.433       .  S
C363        C364   1.381       .  A
C364        C365   1.381   1_556  A
C364        H367   1.082       .  S
C365        C366   1.381       .  A
C365        H368   1.082       .  S
C366        C603   1.432       .  S
N369        C374   1.355       .  A
N369        C373   1.354       .  A
N369        H401   1.039       .  S
N370        C377   1.350       .  A
N370        C378   1.351       .  A
N371        C376   1.354       .  A
N371        C375   1.354       .  A
N371        H402   1.039       .  S
N372        C379   1.350       .  A
N372        C380   1.350       .  A
C373        C381   1.388       .  A
C373        C389   1.415       .  A
C374        C390   1.415       .  A
C374        C382   1.388       .  A
C375        C383   1.388       .  A
C375        C392   1.413   1_554  A
C376        C391   1.413       .  A
C376        C384   1.387       .  A
C377        C389   1.410       .  A
C377        C385   1.388       .  A
C378        C392   1.409       .  A
C378        C386   1.386       .  A
C379        C387   1.387       .  A
C379        C390   1.409   1_554  A
C380        C388   1.387       .  A
C380        C391   1.409       .  A
C381        C382   1.373       .  A
C381        H393   1.082       .  S
C382        H394   1.082       .  S
C383        C384   1.371       .  A
C383        H395   1.082       .  S
C384        H396   1.082       .  S
C385        C386   1.372       .  A
C385        H397   1.083       .  S
C386        H398   1.083       .  S
C387        C388   1.371       .  A
C387        H399   1.083       .  S
C388        H400   1.083       .  S
C389        C609   1.448       .  S
C390        C605   1.449       .  S
C391        C599   1.448       .  S
C392        C616   1.448       .  S
N403        C407   1.347       .  A
N403        C404   1.347       .  A
N403        C602   1.404       .  S
C404        C698   1.438       .  S
C404        C405   1.381       .  A
C405        C406   1.382       .  A
C405        H408   1.082       .  S
C406        C407   1.381       .  A
C406        H409   1.082       .  S
C407        C598   1.438       .  S
N410        C414   1.346       .  A
N410        C411   1.347       .  A
N410        C593   1.402       .  S
C411        C688   1.440       .  S
C411        C412   1.382       .  A
C412        C413   1.383       .  A
C412        H415   1.082       .  S
C413        C414   1.381       .  A
C413        H416   1.082       .  S
C414        C696   1.439       .  S
N417        C421   1.348       .  A
N417        C418   1.348   1_545  A
N417        C589   1.405       .  S
C418        C692   1.439       .  S
C418        C419   1.382       .  A
C419        C420   1.382   1_565  A
C419        H422   1.082       .  S
C420        C421   1.381       .  A
C420        H423   1.082       .  S
C421        C654   1.438       .  S
N424        C428   1.347   1_565  A
N424        C425   1.348       .  A
N424        C585   1.404       .  S
C425        C700   1.440       .  S
C425        C426   1.382       .  A
C426        C427   1.383   1_565  A
C426        H429   1.082       .  S
C427        C428   1.381       .  A
C427        H430   1.082       .  S
C428        C584   1.440       .  S
N431        C436   1.354       .  A
N431        C435   1.353       .  A
N431        H463   1.039       .  S
N432        C439   1.350       .  A
N432        C440   1.350       .  A
N433        C438   1.354       .  A
N433        C437   1.354       .  A
N433        H464   1.039       .  S
N434        C441   1.351       .  A
N434        C442   1.349       .  A
C435        C443   1.388       .  A
C435        C451   1.412       .  A
C436        C452   1.412   1_565  A
C436        C444   1.387       .  A
C437        C445   1.388       .  A
C437        C454   1.414   1_545  A
C438        C453   1.414       .  A
C438        C446   1.388       .  A
C439        C451   1.408       .  A
C439        C447   1.387       .  A
C440        C454   1.409       .  A
C440        C448   1.387       .  A
C441        C449   1.386       .  A
C441        C452   1.408       .  A
C442        C450   1.387       .  A
C442        C453   1.408       .  A
C443        C444   1.372       .  A
C443        H455   1.082       .  S
C444        H456   1.082       .  S
C445        C446   1.373       .  A
C445        H457   1.082       .  S
C446        H458   1.082       .  S
C447        C448   1.371       .  A
C447        H459   1.083       .  S
C448        H460   1.083       .  S
C449        C450   1.372       .  A
C449        H461   1.082       .  S
C450        H462   1.083       .  S
C451        C596   1.446       .  S
C452        C592   1.449       .  S
C453        C582   1.447       .  S
C454        C588   1.448       .  S
N465        C469   1.345       .  A
N465        C466   1.346       .  A
N465        C579   1.404       .  S
C466        C657   1.437       .  S
C466        C467   1.382       .  A
C467        C468   1.383       .  A
C467        H470   1.082       .  S
C468        C469   1.382       .  A
C468        H471   1.082       .  S
C469        C577   1.437       .  S
N472        C476   1.343       .  A
N472        C473   1.344       .  A
N472        C576   1.404       .  S
C473        C655   1.431       .  S
C473        C474   1.381       .  A
C474        C475   1.382       .  A
C474        H477   1.082       .  S
C475        C476   1.381       .  A
C475        H478   1.082       .  S
C476        C648   1.432       .  S
N479        C483   1.346       .  A
N479        C480   1.347   1_655  A
N479        C569   1.406       .  S
C480        C617   1.434       .  S
C480        C481   1.381       .  A
C481        C482   1.380   1_455  A
C481        H484   1.082       .  S
C482        C483   1.381       .  A
C482        H485   1.082       .  S
C483        C651   1.433       .  S
N486        C490   1.344   1_655  A
N486        C487   1.346       .  A
N486        C568   1.404       .  S
C487        C660   1.435       .  S
C487        C488   1.382       .  A
C488        C489   1.382   1_655  A
C488        H491   1.082       .  S
C489        C490   1.381       .  A
C489        H492   1.082       .  S
C490        C563   1.435       .  S
N493        C498   1.353       .  A
N493        C497   1.354       .  A
N493        H525   1.040       .  S
N494        C501   1.350       .  A
N494        C502   1.350       .  A
N495        C500   1.354       .  A
N495        C499   1.354       .  A
N495        H526   1.040       .  S
N496        C503   1.350       .  A
N496        C504   1.350       .  A
C497        C505   1.388       .  A
C497        C513   1.412       .  A
C498        C514   1.413       .  A
C498        C506   1.388       .  A
C499        C507   1.388       .  A
C499        C516   1.413       .  A
C500        C515   1.414       .  A
C500        C508   1.388       .  A
C501        C513   1.408   1_655  A
C501        C509   1.387       .  A
C502        C516   1.408       .  A
C502        C510   1.387       .  A
C503        C511   1.387       .  A
C503        C514   1.409       .  A
C504        C512   1.387       .  A
C504        C515   1.408   1_455  A
C505        C506   1.373       .  A
C505        H517   1.082       .  S
C506        H518   1.082       .  S
C507        C508   1.373       .  A
C507        H519   1.082       .  S
C508        H520   1.082       .  S
C509        C510   1.371       .  A
C509        H521   1.083       .  S
C510        H522   1.082       .  S
C511        C512   1.373       .  A
C511        H523   1.082       .  S
C512        H524   1.083       .  S
C513        C565   1.447       .  S
C514        C562   1.447       .  S
C515        C572   1.449       .  S
C516        C573   1.447       .  S
N527        C531   1.344       .  A
N527        C528   1.344       .  A
N527        C559   1.404       .  S
C528        C620   1.432       .  S
C528        C529   1.381       .  A
C529        C530   1.382       .  A
C529        H532   1.082       .  S
C530        C531   1.382       .  A
C530        H533   1.082       .  S
C531        C558   1.434       .  S
Zn534       O538   1.947       .  S
Zn534       O539   2.007       .  S
Zn534       O543   2.022       .  S
Zn534       O550   1.984       .  S
Zn535       O538   1.949       .  S
Zn535       O540   2.024       .  S
Zn535       O542   1.998       .  S
Zn535       O546   2.025       .  S
Zn536       O538   1.928       .  S
Zn536       O541   1.999       .  S
Zn536       O544   1.995       .  S
Zn536       O547   1.985       .  S
Zn537       O538   1.953       .  S
Zn537       O545   2.025       .  S
Zn537       O548   2.008       .  S
Zn537       O549   2.026       .  S
O539        C551   1.271       .  A
O540        C552   1.273       .  A
O541        C553   1.269       .  A
O542        C551   1.270       .  A
O543        C553   1.271       .  A
O544        C552   1.270       .  A
O545        C554   1.274       .  A
O546        C555   1.274       .  A
O547        C554   1.269       .  A
O548        C555   1.271       .  A
O549        C556   1.274       .  A
O550        C556   1.269       .  A
C551        C604   1.426       .  S
C552        C578   1.431       .  S
C553        C597   1.432       .  S
C554        C557   1.427       .  S
C555        C583   1.434       .  S
C556        C564   1.427       .  S
C557        C558   1.201       .  T
C559        C560   1.203       .  T
C560        C561   1.408       .  S
C561        C562   1.204       .  T
C563        C564   1.201       .  T
C565        C566   1.203   1_455  T
C566        C567   1.407       .  S
C567        C568   1.203       .  T
C569        C570   1.205       .  T
C570        C571   1.411       .  S
C571        C572   1.205       .  T
C573        C574   1.203       .  T
C574        C575   1.407       .  S
C575        C576   1.203       .  T
C577        C578   1.203       .  T
C579        C580   1.203       .  T
C580        C581   1.407       .  S
C581        C582   1.203       .  T
C583        C584   1.205       .  T
C585        C586   1.204       .  T
C586        C587   1.408       .  S
C587        C588   1.204       .  T
C589        C590   1.204       .  T
C590        C591   1.410       .  S
C591        C592   1.205       .  T
C593        C594   1.202       .  T
C594        C595   1.406       .  S
C595        C596   1.202       .  T
C597        C598   1.204       .  T
C599        C600   1.204       .  T
C600        C601   1.408       .  S
C601        C602   1.204       .  T
C603        C604   1.201       .  T
C605        C606   1.205       .  T
C606        C607   1.410   1_556  S
C607        C608   1.205       .  T
C609        C610   1.204       .  T
C610        C611   1.408       .  S
C611        C612   1.204       .  T
C613        C614   1.204       .  T
C614        C615   1.409       .  S
C615        C616   1.204       .  T
C617        C618   1.202       .  T
C619        C620   1.200       .  T
C621        C622   1.203       .  T
C623        C624   1.201       .  T
C625        C626   1.200       .  T
C627        C628   1.202       .  T
C628        C629   1.406       .  S
C629        C630   1.202       .  T
C631        C632   1.202       .  T
C633        C634   1.206       .  T
C634        C635   1.412   1_545  S
C635        C636   1.206       .  T
C637        C638   1.203       .  T
C638        C639   1.407       .  S
C639        C640   1.203       .  T
C641        C642   1.205       .  T
C642        C643   1.410       .  S
C643        C644   1.204       .  T
C645        C646   1.205       .  T
C647        C648   1.200       .  T
C649        C650   1.201       .  T
C651        C652   1.201       .  T
C653        C654   1.204       .  T
C655        C656   1.199       .  T
C657        C658   1.203       .  T
C659        C660   1.202       .  T
C661        C662   1.204       .  T
C663        C664   1.203       .  T
C664        C665   1.406       .  S
C665        C666   1.203       .  T
C667        C668   1.202       .  T
C669        C670   1.203       .  T
C671        C672   1.204       .  T
C672        C673   1.408       .  S
C673        C674   1.204       .  T
C675        C676   1.207       .  T
C677        C678   1.201       .  T
C678        C679   1.404       .  S
C679        C680   1.201       .  T
C681        C682   1.203       .  T
C682        C683   1.406       .  S
C683        C684   1.202       .  T
C685        C686   1.203       .  T
C687        C688   1.205       .  T
C689        C690   1.204       .  T
C691        C692   1.205       .  T
C693        C694   1.202       .  T
C695        C696   1.204       .  T
C697        C698   1.204       .  T
C699        C700   1.206       .  T
C701        C702   1.204       .  T
C703        C704   1.202       .  T
C704        C705   1.406       .  S
C705        C706   1.202       .  T
C707        C708   1.204       .  T
C709        C710   1.204       .  T
C711        C712   1.202   1_655  T
C712        C713   1.406       .  S
C713        C714   1.203       .  T
C715        C716   1.204       .  T
C716        C717   1.409       .  S
C717        C718   1.204       .  T
C719        C720   1.204       .  T
C721        C722   1.202       .  T
C722        C723   1.405       .  S
C723        C724   1.202       .  T
C725        C726   1.204       .  T
C727        C728   1.203       .  T
C729        C730   1.201       .  T
C731        C732   1.204       .  T
C733        C734   1.201       .  T
C735        C736   1.203       .  T
C737        C738   1.200       .  T
C739        C740   1.207       .  T
C741        C742   1.204       .  T
C743        C744   1.204       .  T
C745        C746   1.205       .  T
C747        C748   1.204       .  T
