geometry optimzed in LAMMPS
_audit_creation_date              2020-11-30 
_audit_creation_method            'lammps2cif' 
_symmetry_space_group_name_H-M    'P1' 
_symmetry_Int_Tables_number       1 
_symmetry_cell_setting            triclinic 
loop_ 
_symmetry_equiv_pos_as_xyz 
  x,y,z 
_cell_length_a                    58.19198171394329 
_cell_length_b                    58.203185943401806 
_cell_length_c                    58.084384302329894 
_cell_angle_alpha                 89.98995990348776 
_cell_angle_beta                  89.99068956598249 
_cell_angle_gamma                 90.008643579529 
loop_ 
_atom_site_label 
_atom_site_type_symbol 
_atom_site_fract_x 
_atom_site_fract_y 
_atom_site_fract_z 
_atom_site_charge 
O1          O  0.76875161  0.22052901  0.01781575    -0.88040
C2          C  0.78607163  0.28783430  0.00853282     0.87990
Mg3        Mg  0.76496611  0.19780519  0.98926895     1.58150
O4          O  0.72905013  0.27660861  0.02425693    -0.87770
O5          O  0.75108950  0.23331268  0.04847459    -0.75100
C6          C  0.69927184  0.25314818  0.91567267     0.93040
O7          O  0.80190333  0.24210353  0.97846820    -0.74920
O8          O  0.71472464  0.23782147  0.91670825    -0.82420
Mg9        Mg  0.80001023  0.23992984  0.01789577     1.57960
C10         C  0.67651380  0.31147284  0.99069531     0.92960
O11         O  0.80276714  0.23719623  0.05699184    -0.80690
H12         H  0.70550067  0.26347778  0.04564966    -0.06030
C13         C  0.74208777  0.28780119  0.95643953     0.87900
O14         O  0.72569945  0.20249282  0.98984114    -0.75200
O15         O  0.77949317  0.27046617  0.01886504    -0.87960
O16         O  0.69352614  0.31378111  0.00422762    -0.80770
C17         C  0.74922226  0.32750884  0.05015577     0.93080
C18         C  0.80232292  0.25275874  0.07230160     0.92930
Mg19       Mg  0.69852303  0.26439864  0.97200763     1.57950
O20         O  0.69563399  0.26714591  0.93221192    -0.80690
O21         O  0.69727624  0.26093337  0.01171852    -0.74930
O22         O  0.76357893  0.31113276  0.05124527    -0.80770
O23         O  0.82156849  0.20780375  0.01657763    -0.82480
O24         O  0.73705452  0.19358695  0.93676856    -0.80800
C25         C  0.71049228  0.26700290  0.02807001     0.87360
O26         O  0.71890012  0.23385457  0.97021647    -0.87950
O27         O  0.72935374  0.28433719  0.97313550    -0.88050
O28         O  0.74927782  0.27141288  0.94386459    -0.75110
Mg29       Mg  0.75727912  0.27251344  0.04783576     1.57970
O30         O  0.73439207  0.32858797  0.03423535    -0.82480
H31         H  0.75244564  0.19953152  0.03968510    -0.06210
O32         O  0.76975807  0.22665479  0.96683021    -0.87750
H33         H  0.79375577  0.23765593  0.94477203    -0.06030
H34         H  0.69362596  0.21461537  0.98337185    -0.06210
C35         C  0.78864856  0.23531407  0.96251408     0.87340
C36         C  0.75737502  0.21693222  0.03542980     0.87930
C37         C  0.71190713  0.21691393  0.98097509     0.87970
H38         H  0.74761219  0.30514260  0.95271230    -0.06190
O39         O  0.77186237  0.30272360  0.00113303    -0.75210
Mg40       Mg  0.74291331  0.23227585  0.94245345     1.58000
H41         H  0.80424798  0.29036022  0.00562502    -0.06200
C42         C  0.82049470  0.19139714  0.00223866     0.92960
O43         O  0.76136710  0.17411903  0.95902967    -0.82440
C44         C  0.74836932  0.17550462  0.94155818     0.93020
O45         O  0.78772143  0.26891577  0.07170524    -0.82430
Mg46       Mg  0.73221890  0.30618448  0.00272960     1.58180
O47         O  0.80323828  0.18843266  0.98912738    -0.80760
O48         O  0.67642869  0.29651956  0.97477226    -0.82460
O49         O  0.73545709  0.45816964  0.75361125    -0.88040
C50         C  0.74400926  0.49866132  0.69713669     0.87990
Mg51       Mg  0.71377869  0.46809833  0.78159661     1.58150
O52         O  0.79088720  0.49655528  0.73535207    -0.87770
O53         O  0.77066570  0.44716827  0.74698562    -0.75100
C54         C  0.74534083  0.57355199  0.80757048     0.93040
O55         O  0.69868126  0.49256088  0.72968930    -0.74920
O56         O  0.72712256  0.56151989  0.80646785    -0.82420
Mg57       Mg  0.72036637  0.46119723  0.71978210     1.57960
C58         C  0.82258761  0.55776458  0.75314759     0.92960
O59         O  0.73730901  0.42883158  0.70565957    -0.80690
H60         H  0.81503247  0.47864416  0.75196661    -0.06030
C61         C  0.74860756  0.55215616  0.74264739     0.87900
O62         O  0.74429146  0.48081650  0.80285371    -0.75200
O63         O  0.74853360  0.48233511  0.70991742    -0.87960
O64         O  0.81782462  0.54581003  0.73544424    -0.80770
C65         C  0.80883699  0.50130546  0.67732447     0.93080
C66         C  0.75468130  0.42435297  0.69317456     0.92930
Mg67       Mg  0.77987699  0.53590760  0.78136011     1.57950
O68         O  0.76345218  0.56827017  0.79645370    -0.80690
O69         O  0.80057168  0.50411830  0.77087420    -0.74930
O70         O  0.79763952  0.48332721  0.68273876    -0.80770
O71         O  0.69132558  0.43856282  0.73016680    -0.82480
O72         O  0.70084449  0.51549985  0.81689864    -0.80800
C73         C  0.80286275  0.49267013  0.75245084     0.87360
O74         O  0.75096177  0.51564190  0.79086982    -0.87950
O75         O  0.76499501  0.53964815  0.74756540    -0.88050
O76         O  0.72962995  0.55064792  0.75321643    -0.75110
Mg77       Mg  0.78205816  0.46737134  0.71500501     1.57970
O78         O  0.80804170  0.51952193  0.68932883    -0.82480
H79         H  0.75089000  0.43403049  0.77259309    -0.06210
O80         O  0.70882830  0.50103926  0.76482083    -0.87750
H81         H  0.68397301  0.51810280  0.74834124    -0.06030
H82         H  0.76847814  0.50161440  0.81690204    -0.06210
C83         C  0.69647021  0.50436614  0.74788993     0.87340
C84         C  0.75204965  0.44581845  0.75825303     0.87930
C85         C  0.75498571  0.49970559  0.80425120     0.87970
H86         H  0.75020745  0.56406125  0.72844699    -0.06190
O87         O  0.75471368  0.51756995  0.69864181    -0.75210
Mg88       Mg  0.71756321  0.53073654  0.78491543     1.58000
H89         H  0.73007345  0.49706227  0.68493272    -0.06200
C90         C  0.67897280  0.43738819  0.74811259     0.92960
O91         O  0.69071660  0.47919158  0.81031082    -0.82440
C92         C  0.68918581  0.49768700  0.82184434     0.93020
O93         O  0.77249708  0.43696781  0.69317466    -0.82430
Mg94       Mg  0.78599067  0.52969397  0.71924741     1.58180
O95         O  0.68268567  0.44989912  0.76569248    -0.80760
O96         O  0.81014054  0.55746666  0.77112811    -0.82460
O97         O  0.49197637  0.73601169  0.78831754    -0.88040
C98         C  0.54975133  0.74475543  0.74868104     0.87990
Mg99       Mg  0.46306558  0.71559467  0.77722406     1.58150
O100        O  0.51254454  0.79253436  0.75113798    -0.87770
O101        O  0.49954298  0.77099146  0.79966238    -0.75100
C102        C  0.44488080  0.75057475  0.66947447     0.93040
O103        O  0.51515884  0.69979474  0.75319320    -0.74920
O104        O  0.44412680  0.73204242  0.68120453    -0.82420
Mg105      Mg  0.52553488  0.72038956  0.78511796     1.57960
C106        C  0.49644510  0.82645143  0.69106982     0.92960
O107        O  0.54090319  0.73605775  0.81805988    -0.80690
H108        H  0.49548445  0.81569183  0.76991469    -0.06030
C109        C  0.50646567  0.75089310  0.69546362     0.87900
O110        O  0.44388476  0.74718308  0.76406372    -0.75200
O111        O  0.53659820  0.74904236  0.76478059    -0.87960
O112        O  0.51426847  0.82070249  0.70232574    -0.80770
C113        C  0.57065234  0.80980245  0.74759586     0.93080
C114        C  0.55282099  0.75367933  0.82324618     0.92930
Mg115      Mg  0.46764260  0.78304472  0.71053861     1.57950
O116        O  0.45516551  0.76843450  0.67660339    -0.80690
O117        O  0.47701814  0.80215845  0.74361219    -0.74930
O118        O  0.56515453  0.79845119  0.76553068    -0.80770
O119        O  0.51365561  0.69079550  0.80657872    -0.82480
O120        O  0.42818556  0.70430479  0.72703022    -0.80800
C121        C  0.49529866  0.80418003  0.75530974     0.87360
O122        O  0.45668602  0.75364287  0.72936274    -0.87950
O123        O  0.50114480  0.76766808  0.70734546    -0.88050
O124        O  0.49551069  0.73209684  0.69658638    -0.75110
Mg125      Mg  0.53210493  0.78245261  0.78038930     1.57970
O126        O  0.55874737  0.80916747  0.72934255    -0.82480
H127        H  0.47319060  0.75193629  0.81229931    -0.06210
O128        O  0.48012310  0.71004098  0.74449093    -0.87750
H129        H  0.49671074  0.68532268  0.72737754    -0.06030
H130        H  0.43112962  0.77195965  0.74314184    -0.06210
C131        C  0.49703863  0.69766972  0.74127724     0.87340
C132        C  0.48770977  0.75270329  0.80071071     0.87930
C133        C  0.44318367  0.75796692  0.74514463     0.87970
H134        H  0.52148304  0.75195142  0.68455326    -0.06190
O135        O  0.54905777  0.75611538  0.73007264    -0.75210
Mg136      Mg  0.46218077  0.72044414  0.71380131     1.58000
H137        H  0.56163219  0.73055771  0.75021498    -0.06200
C138        C  0.49555946  0.67863794  0.80804154     0.92960
O139        O  0.43269366  0.69503544  0.76415203    -0.82440
C140        C  0.42148083  0.69401766  0.74524696     0.93020
O141        O  0.55280667  0.77169287  0.81091111    -0.82430
Mg142      Mg  0.52924800  0.78803173  0.71817228     1.58180
O143        O  0.47749415  0.68325409  0.79637141    -0.80760
O144        O  0.47842397  0.81419286  0.69095829    -0.82460
O145        O  0.26620608  0.78389630  0.02424610    -0.88040
C146        C  0.25802033  0.71549590  0.03807848     0.87990
Mg147      Mg  0.23704204  0.80558618  0.01945663     1.58150
O148        O  0.28110548  0.72827037  0.98360399    -0.87770
O149        O  0.29875350  0.77241605  0.00928992    -0.75100
C150        C  0.17727303  0.75206688  0.94084439     0.93040
O151        O  0.22490244  0.75926243  0.05287962    -0.74920
O152        O  0.17531448  0.76608287  0.95742580    -0.82420
Mg153      Mg  0.26419824  0.76340325  0.05468530     1.57960
C154        C  0.25265151  0.69492765  0.92610345     0.92960
O155        O  0.30203759  0.76876066  0.06135390    -0.80690
H156        H  0.30487858  0.74297686  0.96356971    -0.06030
C157        C  0.21219320  0.71528224  0.98715745     0.87900
O158        O  0.24197160  0.80416074  0.98010085    -0.75200
O159        O  0.26835453  0.73340771  0.03331858    -0.87960
O160        O  0.26475373  0.69103661  0.94405176    -0.80770
C161        C  0.30649847  0.67815067  0.00661705     0.93080
C162        C  0.31675782  0.75297077  0.06324933     0.92930
Mg163      Mg  0.23296897  0.74228431  0.94780576     1.57950
O164        O  0.19468219  0.73903479  0.93852984    -0.80690
O165        O  0.27216436  0.74624987  0.95182372    -0.74930
O166        O  0.30620919  0.69430182  0.02128608    -0.80770
O167        O  0.26097279  0.79483368  0.07629865    -0.82480
O168        O  0.18879937  0.80893989  0.98594370    -0.80800
C169        C  0.28691147  0.73908489  0.96625754     0.87360
O170        O  0.22712598  0.77134689  0.96981683    -0.87950
O171        O  0.23035501  0.71991942  0.97712924    -0.88050
O172        O  0.19829807  0.73088666  0.99355817    -0.75110
Mg173      Mg  0.29998465  0.73304304  0.01504696     1.57970
O174        O  0.29181671  0.67711373  0.99036400    -0.82480
H175        H  0.28839551  0.80578194  0.00966825    -0.06210
O176        O  0.21623128  0.77517638  0.02004763    -0.87750
H177        H  0.19219384  0.76217822  0.04097043    -0.06030
H178        H  0.24054747  0.79322790  0.94690898    -0.06210
C179        C  0.21021983  0.76557512  0.03801552     0.87340
C180        C  0.28450338  0.78822194  0.01432487     0.87930
C181        C  0.23656594  0.78963841  0.96473198     0.87970
H182        H  0.20826643  0.69753988  0.99102696    -0.06190
O183        O  0.25316116  0.70082137  0.02261553    -0.75210
Mg184      Mg  0.19611595  0.77028401  0.98963669     1.58000
H185        H  0.25291219  0.71229627  0.05568516    -0.06200
C186        C  0.24674056  0.81115709  0.07486689     0.92960
O187        O  0.20549974  0.82703240  0.01518623    -0.82440
C188        C  0.18978412  0.82554206  0.00017115     0.93020
O189        O  0.31832094  0.73709344  0.04846546    -0.82430
Mg190      Mg  0.25981189  0.69840927  0.98338284     1.58180
O191        O  0.23283405  0.81292276  0.05808524    -0.80760
O192        O  0.23882633  0.71175887  0.92487447    -0.82460
O193        O  0.50039266  0.53942443  0.48267714    -0.88040
C194        C  0.44357183  0.49958681  0.49297765     0.87990
Mg195      Mg  0.52912890  0.52892342  0.46207944     1.58150
O196        O  0.48091955  0.50275084  0.54075110    -0.87770
O197        O  0.49388208  0.55074113  0.51797194    -0.75100
C198        C  0.55276477  0.42446289  0.50138227     0.93040
O199        O  0.47798358  0.50233816  0.44845648    -0.74920
O200        O  0.55368926  0.43678654  0.48336146    -0.82420
Mg201      Mg  0.46673078  0.53493771  0.46765664     1.57960
C202        C  0.49702738  0.44200795  0.57363224     0.92960
O203        O  0.45129137  0.56804790  0.48275306    -0.80690
H204        H  0.49648243  0.52169874  0.56481058    -0.06030
C205        C  0.48957060  0.44682664  0.49948458     0.87900
O206        O  0.54945901  0.51822170  0.49420193    -0.75200
O207        O  0.45666660  0.51570248  0.49711594    -0.87960
O208        O  0.47883114  0.45287672  0.56850106    -0.80770
C209        C  0.42337318  0.49924482  0.55811540     0.93080
C210        C  0.44053321  0.57404716  0.50089814     0.92930
Mg211      Mg  0.52678430  0.46410882  0.53197060     1.57950
O212        O  0.54097796  0.43024815  0.51873946    -0.80690
O213        O  0.51634913  0.49652472  0.55124314    -0.74930
O214        O  0.42894600  0.51728256  0.54701745    -0.80770
O215        O  0.47700895  0.55520039  0.43663358    -0.82480
O216        O  0.56705786  0.48203048  0.45267680    -0.80800
C217        C  0.49757933  0.50734977  0.55304376     0.87360
O218        O  0.53772919  0.48359531  0.50252435    -0.87950
O219        O  0.49362819  0.45963233  0.51591072    -0.88050
O220        O  0.50131194  0.44772729  0.48113017    -0.75110
Mg221      Mg  0.46159099  0.53179862  0.53025872     1.57970
O222        O  0.43493761  0.48080029  0.55689148    -0.82480
H223        H  0.51946351  0.56352399  0.49800957    -0.06210
O224        O  0.51368787  0.49552069  0.45811873    -0.87750
H225        H  0.49698781  0.47641628  0.43494866    -0.06030
H226        H  0.56261957  0.49920522  0.52035390    -0.06210
C227        C  0.49649774  0.49096862  0.44650283     0.87340
C228        C  0.50502533  0.55189529  0.49923663     0.87930
C229        C  0.55058876  0.50005029  0.50619606     0.87970
H230        H  0.47520507  0.43508916  0.50049304    -0.06190
O231        O  0.44474157  0.48095360  0.50411825    -0.75210
Mg232      Mg  0.53370626  0.46695234  0.46969129     1.58000
H233        H  0.43148895  0.50106374  0.47891699    -0.06200
C234        C  0.49486926  0.55531418  0.42406664     0.92960
O235        O  0.55956068  0.51768097  0.44075843    -0.82440
C236        C  0.57211103  0.49975318  0.44064800     0.93020
O237        O  0.44120487  0.56227024  0.51928712    -0.82430
Mg238      Mg  0.46465662  0.46958715  0.53593682     1.58180
O239        O  0.51282405  0.54387586  0.42927136    -0.80760
O240        O  0.51525503  0.44385901  0.56184955    -0.82460
O241        O  0.22720665  0.98000217  0.71101502    -0.88040
C242        C  0.23209144  0.96590706  0.77942250     0.87990
Mg243      Mg  0.25728991  0.98639616  0.69086472     1.58150
O244        O  0.21360602  0.02139365  0.76439488    -0.87770
O245        O  0.19452344  0.99606165  0.71986525    -0.75100
C246        C  0.32019356  0.05987104  0.74968020     0.93040
O247        O  0.26752178  0.95198717  0.73700155    -0.74920
O248        O  0.32154681  0.04390746  0.73488361    -0.82420
Mg249      Mg  0.22851278  0.94941726  0.73159149     1.57960
C250        C  0.24239738  0.07636622  0.80351527     0.92960
O251        O  0.18974667  0.94012797  0.72745278    -0.80690
H252        H  0.19134344  0.04308152  0.74966644    -0.06030
C253        C  0.28057919  0.01457955  0.78253063     0.87900
O254        O  0.25235180  0.02543348  0.69442151    -0.75200
O255        O  0.22264097  0.97059954  0.76095670    -0.87960
O256        O  0.22768708  0.06010622  0.80412688    -0.80770
C257        C  0.18347871  0.99999300  0.81203197     0.93080
C258        C  0.17265452  0.94252263  0.74098469     0.92930
Mg259      Mg  0.26367770  0.05605044  0.75638808     1.57950
O260        O  0.30249583  0.06264877  0.76228362    -0.80690
O261        O  0.22445900  0.05426554  0.74990759    -0.74930
O262        O  0.18561032  0.98482218  0.79668320    -0.80770
O263        O  0.23514034  0.92886920  0.69987000    -0.82480
O264        O  0.30829428  0.01810589  0.68977089    -0.80800
C265        C  0.20893003  0.03960477  0.75454530     0.87360
O266        O  0.26947381  0.03528008  0.72650019    -0.87950
O267        O  0.26330431  0.02578275  0.77732599    -0.88050
O268        O  0.29496697  0.00811841  0.76737900    -0.75110
Mg269      Mg  0.19238797  0.99118096  0.75898576     1.57970
O270        O  0.19790576  0.01621366  0.81425887    -0.82480
H271        H  0.20632869  0.99323223  0.68708577    -0.06210
O272        O  0.27757726  0.98462033  0.72157324    -0.87750
H273        H  0.30053940  0.96313083  0.73542425    -0.06030
H274        H  0.25488091  0.05837062  0.70562950    -0.06210
C275        C  0.28274286  0.96648371  0.73126598     0.87340
C276        C  0.20926244  0.98965817  0.70511191     0.87930
C277        C  0.25902639  0.04053087  0.70873352     0.87970
H278        H  0.28330642  0.00981842  0.80031488    -0.06190
O279        O  0.23695062  0.98144625  0.79403813    -0.75210
Mg280      Mg  0.29910528  0.01349480  0.72816823     1.58000
H281        H  0.23645677  0.94824224  0.78316777    -0.06200
C282        C  0.25004886  0.93096906  0.68402596     0.92960
O283        O  0.28848522  0.99222626  0.66979317    -0.82440
C284        C  0.30535310  0.00576230  0.67191651     0.93020
O285        O  0.17096335  0.95955043  0.75444804    -0.82430
Mg286      Mg  0.23187987  0.02089017  0.79622792     1.58180
O287        O  0.26284607  0.94849555  0.68218084    -0.80760
O288        O  0.25776973  0.07728620  0.78802798    -0.82460
O289        O  0.76372499  0.74834192  0.54229414    -0.88040
C290        C  0.75686365  0.80461528  0.50122130     0.87990
Mg291      Mg  0.78342715  0.71940741  0.53179892     1.58150
O292        O  0.70804993  0.76888937  0.50317531    -0.87770
O293        O  0.72823016  0.75538268  0.55219493    -0.75100
C294        C  0.75068295  0.69553406  0.42604940     0.93040
O295        O  0.80097619  0.77034868  0.50683500    -0.74920
O296        O  0.76879666  0.69599706  0.43821639    -0.82420
Mg297      Mg  0.78033954  0.78138553  0.53844481     1.57960
C298        C  0.67489433  0.75221421  0.44144899     0.92960
O299        O  0.76504033  0.79726983  0.57095255    -0.80690
H300        H  0.68289852  0.75359540  0.52090037    -0.06030
C301        C  0.74990453  0.76046627  0.44757890     0.87900
O302        O  0.75143106  0.70031905  0.51921809    -0.75200
O303        O  0.75210417  0.79204081  0.51766301    -0.87960
O304        O  0.68013073  0.77032877  0.45278708    -0.80770
C305        C  0.69419741  0.82823624  0.50067032     0.93080
C306        C  0.74718236  0.80883177  0.57585187     0.92930
Mg307      Mg  0.71697962  0.72291278  0.46364328     1.57950
O308        O  0.73292045  0.70725886  0.43117636    -0.80690
O309        O  0.69652782  0.73407678  0.49540316    -0.74930
O310        O  0.70509003  0.82193434  0.51848697    -0.80770
O311        O  0.80952980  0.76966561  0.56018972    -0.82480
O312        O  0.79358821  0.68361791  0.48406955    -0.80800
C313        C  0.69512908  0.75250461  0.50693076     0.87360
O314        O  0.74537493  0.71237079  0.48416427    -0.87950
O315        O  0.73285660  0.75612314  0.45946408    -0.88050
O316        O  0.76838970  0.74910300  0.44953924    -0.75110
Mg317      Mg  0.71847802  0.78811661  0.53280897     1.57970
O318        O  0.69345099  0.81607165  0.48248105    -0.82480
H319        H  0.74715896  0.72945896  0.56575301    -0.06210
O320        O  0.78879463  0.73589624  0.49881668    -0.87750
H321        H  0.81439323  0.75070504  0.48132868    -0.06030
H322        H  0.72626431  0.68775710  0.49861594    -0.06210
C323        C  0.80208667  0.75198921  0.49521450     0.87340
C324        C  0.74666533  0.74396873  0.55413908     0.87930
C325        C  0.74058567  0.69946892  0.50032481     0.87970
H326        H  0.74933821  0.77487442  0.43584212    -0.06190
O327        O  0.74564375  0.80378166  0.48252466    -0.75210
Mg328      Mg  0.77899494  0.71664797  0.46909898     1.58000
H329        H  0.77142288  0.81608094  0.50252994    -0.06200
C330        C  0.82115282  0.75122537  0.56107256     0.92960
O331        O  0.80416425  0.68936650  0.52043054    -0.82440
C332        C  0.80470449  0.67771949  0.50194717     0.93020
O333        O  0.72926917  0.80821846  0.56343242    -0.82430
Mg334      Mg  0.71319135  0.78514612  0.47020929     1.58180
O335        O  0.81587926  0.73357434  0.54925202    -0.80760
O336        O  0.68709154  0.73411795  0.44230168    -0.82460
O337        O  0.02106407  0.76449251  0.28234478    -0.88040
C338        C  0.03319512  0.75959597  0.21332795     0.87990
Mg339      Mg  0.01818640  0.73378092  0.30236081     1.58150
O340        O  0.97668281  0.77417538  0.22850982    -0.87770
O341        O  0.00116839  0.79490217  0.27279444    -0.75100
C342        C  0.94755757  0.66492951  0.24817487     0.93040
O343        O  0.05181569  0.72694539  0.25520092    -0.74920
O344        O  0.96476888  0.66523920  0.26138242    -0.82420
Mg345      Mg  0.05070118  0.76607660  0.26051647     1.57960
C346        C  0.92181042  0.74306884  0.19333301     0.92960
O347        O  0.05490325  0.80523539  0.26520207    -0.80690
H348        H  0.95370042  0.79519450  0.24309279    -0.06030
C349        C  0.98765897  0.70727056  0.21169073     0.87900
O350        O  0.97859064  0.73559778  0.29990238    -0.75200
O351        O  0.02813011  0.76953320  0.23146309    -0.87960
O352        O  0.93903562  0.75643680  0.19119475    -0.80770
C353        C  0.99545906  0.80265786  0.17751966     0.93080
C354        C  0.05089180  0.82242727  0.25225693     0.92930
Mg355      Mg  0.94573041  0.72196307  0.23901384     1.57950
O356        O  0.94181691  0.68221187  0.23581144    -0.80690
O357        O  0.94507529  0.76136357  0.24421763    -0.74930
O358        O  0.00826398  0.80527187  0.19502818    -0.80770
O359        O  0.07377959  0.76196585  0.29139700    -0.82480
O360        O  0.98795077  0.68267733  0.30365441    -0.80800
C361        C  0.95838440  0.77777187  0.23866157     0.87360
O362        O  0.96855117  0.71851271  0.26780620    -0.87950
O363        O  0.97543347  0.72370921  0.21730669    -0.88050
O364        O  0.99646369  0.69396393  0.22661485    -0.75110
Mg365      Mg  0.00479136  0.79781870  0.23339647     1.57970
O366        O  0.98092662  0.78649731  0.17606441    -0.82480
H367        H  0.00538851  0.78417235  0.30580664    -0.06210
O368        O  0.02022670  0.71456103  0.27113080    -0.87750
H369        H  0.04316462  0.69318568  0.25703441    -0.06030
H370        H  0.94544479  0.73150553  0.28972393    -0.06210
C371        C  0.03854416  0.71070004  0.26114882     0.87340
C372        C  0.00928658  0.78128769  0.28783899     0.87930
C373        C  0.96337124  0.72845213  0.28590160     0.87970
H374        H  0.99152475  0.70458021  0.19368684    -0.06190
O375        O  0.01787367  0.75247687  0.19940549    -0.75210
Mg376      Mg  0.99270736  0.69070654  0.26585800     1.58000
H377        H  0.05109356  0.75653504  0.20939244    -0.06200
C378        C  0.07387455  0.74688293  0.30723684     0.92960
O379        O  0.01515191  0.70108615  0.32306839    -0.82440
C380        C  0.00067202  0.68485619  0.32115119     0.93020
O381        O  0.03443646  0.82253513  0.23791692    -0.82430
Mg382      Mg  0.97821486  0.75443553  0.19744078     1.58180
O383        O  0.05744962  0.73256805  0.30974610    -0.80760
O384        O  0.92167564  0.72667357  0.20792930    -0.82460
O385        O  0.22483613  0.27128751  0.53356017    -0.88040
C386        C  0.23275907  0.28628396  0.46566195     0.87990
Mg387      Mg  0.25430351  0.26775269  0.55545955     1.58150
O388        O  0.21653047  0.22973885  0.47904060    -0.87770
O389        O  0.19377731  0.25341073  0.52233456    -0.75100
C390        C  0.32395801  0.19728314  0.50073740     0.93040
O391        O  0.26396906  0.30246375  0.50984494    -0.74920
O392        O  0.32401293  0.21303947  0.51586606    -0.82420
Mg393      Mg  0.22443648  0.30197210  0.51321749     1.57960
C394        C  0.24947161  0.17634841  0.44454189     0.92960
O395        O  0.18499952  0.30618813  0.51599645    -0.80690
H396        H  0.19472816  0.20713046  0.49305715    -0.06030
C397        C  0.28446973  0.24011758  0.46599524     0.87900
O398        O  0.25242593  0.22834301  0.55277437    -0.75200
O399        O  0.22211356  0.28068319  0.48321488    -0.87960
O400        O  0.23552922  0.19301533  0.44236977    -0.80770
C401        C  0.19092557  0.24913925  0.42722173     0.93080
C402        C  0.16881892  0.30385334  0.50137754     0.92930
Mg403      Mg  0.26786862  0.19830692  0.49147163     1.57950
O404        O  0.30693011  0.19401208  0.48740757    -0.80690
O405        O  0.22838295  0.19814711  0.49560144    -0.74930
O406        O  0.18833644  0.26269110  0.44414576    -0.80770
O407        O  0.22720743  0.32424164  0.54519100    -0.82480
O408        O  0.30588809  0.23840186  0.55958250    -0.80800
C409        C  0.21235967  0.21155800  0.48921273     0.87360
O410        O  0.27092978  0.21958859  0.52119735    -0.87950
O411        O  0.26728011  0.22861788  0.47079234    -0.88050
O412        O  0.29788765  0.24749783  0.48156761    -0.75110
Mg413      Mg  0.19323789  0.25806413  0.48287762     1.57970
O414        O  0.20697686  0.23448558  0.42648620    -0.82480
H415        H  0.20348075  0.25606066  0.55584538    -0.06210
O416        O  0.27586475  0.27054227  0.52570091    -0.87750
H417        H  0.29766042  0.29373047  0.51266794    -0.06030
H418        H  0.25762086  0.19558397  0.54192559    -0.06210
C419        C  0.28001518  0.28903254  0.51610669     0.87340
C420        C  0.20727532  0.26024801  0.53811406     0.87930
C421        C  0.26046425  0.21366370  0.53873651     0.87970
H422        H  0.28788907  0.24439979  0.44820884    -0.06190
O423        O  0.24025198  0.27133487  0.45155917    -0.75210
Mg424      Mg  0.29950086  0.24266554  0.52087207     1.58000
H425        H  0.23604229  0.30427410  0.46238988    -0.06200
C426        C  0.24258027  0.32334942  0.56069762     0.92960
O427        O  0.28541592  0.26461251  0.57846526    -0.82440
C428        C  0.30226437  0.25083139  0.57721760     0.93020
O429        O  0.16913013  0.28813855  0.48627268    -0.82430
Mg430      Mg  0.23788198  0.23175179  0.44917279     1.58180
O431        O  0.25599218  0.30623417  0.56278472    -0.80760
O432        O  0.26468032  0.17593075  0.46016457    -0.82460
O433        O  0.26871755  0.46898966  0.22897124    -0.88040
C434        C  0.26109113  0.53698151  0.21450387     0.87990
Mg435      Mg  0.23961390  0.44679758  0.23213176     1.58150
O436        O  0.27855020  0.52355573  0.27080926    -0.87770
O437        O  0.29995623  0.48019052  0.24664900    -0.75100
C438        C  0.17143848  0.50073948  0.30439962     0.93040
O439        O  0.22945909  0.49330871  0.19828020    -0.74920
O440        O  0.17096518  0.48574358  0.28851865    -0.82420
Mg441      Mg  0.26890485  0.48968811  0.19863599     1.57960
C442        C  0.24673276  0.55573953  0.32523808     0.92960
O443        O  0.30779239  0.48578264  0.19467745    -0.80690
H444        H  0.30048835  0.50862082  0.29269401    -0.06030
C445        C  0.21023553  0.53576004  0.26131568     0.87900
O446        O  0.24180293  0.44870763  0.27160250    -0.75200
O447        O  0.27164346  0.51943359  0.22011473    -0.87960
O448        O  0.25953435  0.55918582  0.30784177    -0.80770
C449        C  0.30293472  0.57610225  0.25048232     0.93080
C450        C  0.32414084  0.50015428  0.19633529     0.92930
Mg451      Mg  0.22754680  0.50959459  0.30241685     1.57950
O452        O  0.18859367  0.51395279  0.30738091    -0.80690
O453        O  0.26691901  0.50540326  0.30171620    -0.74930
O454        O  0.30654624  0.55864805  0.23779635    -0.80770
O455        O  0.26617450  0.45842331  0.17598503    -0.82480
O456        O  0.18868270  0.44234686  0.26213782    -0.80800
C457        C  0.28282069  0.51261022  0.28855247     0.87360
O458        O  0.22388126  0.48040333  0.28067531    -0.87950
O459        O  0.22764158  0.53086351  0.27247487    -0.88050
O460        O  0.19665398  0.52032026  0.25397511    -0.75110
Mg461      Mg  0.30103166  0.51964908  0.24206565     1.57970
O462        O  0.28691942  0.57657444  0.26528310    -0.82480
H463        H  0.29007141  0.44677418  0.24425091    -0.06210
O464        O  0.21785572  0.47644640  0.22985064    -0.87750
H465        H  0.19584460  0.49001759  0.20715691    -0.06030
H466        H  0.23682196  0.45928005  0.30454170    -0.06210
C467        C  0.21353730  0.48652401  0.21162816     0.87340
C468        C  0.28632568  0.46446079  0.23997378     0.87930
C469        C  0.23403042  0.46268428  0.28645862     0.87970
H470        H  0.20675515  0.55355771  0.25728593    -0.06190
O471        O  0.25365220  0.55102546  0.22950236    -0.75210
Mg472      Mg  0.19487205  0.48104372  0.25826820     1.58000
H473        H  0.25778159  0.54024964  0.19648348    -0.06200
C474        C  0.25125709  0.44254816  0.17642712     0.92960
O475        O  0.20887944  0.42381764  0.23539244    -0.82440
C476        C  0.19224770  0.42487679  0.24947145     0.93020
O477        O  0.32426658  0.51578623  0.21152569    -0.82430
Mg478      Mg  0.25663127  0.55299110  0.26904398     1.58180
O479        O  0.23764532  0.43983521  0.19333582    -0.80760
O480        O  0.23169158  0.53998233  0.32568940    -0.82460
O481        O  0.47506829  0.21959330  0.23120954    -0.88040
C482        C  0.46512172  0.28921398  0.23556926     0.87990
Mg483      Mg  0.48010074  0.19846762  0.26109092     1.58150
O484        O  0.51943958  0.27138911  0.21546229    -0.87770
O485        O  0.49107983  0.22816703  0.19825939    -0.75100
C486        C  0.55978159  0.25361837  0.31938460     0.93040
O487        O  0.44998808  0.24756545  0.27186721    -0.74920
O488        O  0.54443231  0.23824028  0.32144239    -0.82420
Mg489      Mg  0.44628759  0.24250642  0.23272156     1.57960
C490        C  0.57563292  0.30583991  0.24443360     0.92960
O491        O  0.43739855  0.23801291  0.19437960    -0.80690
H492        H  0.53953277  0.25535969  0.19257215    -0.06030
C493        C  0.51422830  0.28742064  0.28316130     0.87900
O494        O  0.51929906  0.19902947  0.25520880    -0.75200
O495        O  0.46917684  0.27058455  0.22625762    -0.87960
O496        O  0.55936743  0.30693332  0.22988403    -0.80770
C497        C  0.50084229  0.32280363  0.18873345     0.93080
C498        C  0.43978096  0.25070915  0.17670881     0.92930
Mg499      Mg  0.55353653  0.25995947  0.26473775     1.57950
O500        O  0.56015506  0.26736849  0.30256685    -0.80690
O501        O  0.55105193  0.25377668  0.22557244    -0.74930
O502        O  0.48686308  0.30606323  0.18740193    -0.80770
O503        O  0.42268475  0.21279969  0.23908645    -0.82480
O504        O  0.51486939  0.19442925  0.31008486    -0.80800
C505        C  0.53672340  0.26015116  0.21033251     0.87360
O506        O  0.53126285  0.23108682  0.27065992    -0.87950
O507        O  0.52413956  0.28157546  0.26527432    -0.88050
O508        O  0.50795366  0.27271868  0.29808580    -0.75110
Mg509      Mg  0.48891813  0.26760647  0.19529388     1.57970
O510        O  0.51649619  0.32371039  0.20384316    -0.82480
H511        H  0.48706298  0.19547191  0.20982995    -0.06210
O512        O  0.48095119  0.22877452  0.28188288    -0.87750
H513        H  0.46111250  0.24488398  0.30489631    -0.06030
H514        H  0.55286122  0.20861946  0.25614295    -0.06210
C515        C  0.46391877  0.24034143  0.28706953     0.87340
C516        C  0.48430147  0.21356000  0.21303385     0.87930
C517        C  0.53533422  0.21280327  0.26067193     0.87970
H518        H  0.51054150  0.30539851  0.28603304    -0.06190
O519        O  0.48122231  0.30298778  0.24078613    -0.75210
Mg520      Mg  0.51168091  0.23335802  0.30161357     1.58000
H521        H  0.44756895  0.29373207  0.23965588    -0.06200
C522        C  0.42351938  0.19651284  0.25358012     0.92960
O523        O  0.48565548  0.17671457  0.29280162    -0.82440
C524        C  0.50094186  0.17759202  0.30843574     0.93020
O525        O  0.45655809  0.26442112  0.17444143    -0.82430
Mg526      Mg  0.52047363  0.30236019  0.23538116     1.58180
O527        O  0.44104743  0.19299761  0.26626525    -0.80760
O528        O  0.57631703  0.29029562  0.25961462    -0.82460
O529        O  0.97756637  0.21709219  0.72250008    -0.88040
C530        C  0.96100756  0.28500735  0.72906847     0.87990
Mg531      Mg  0.98049431  0.19533477  0.75212469     1.58150
O532        O  0.01919652  0.27373041  0.71714686    -0.87770
O533        O  0.99838475  0.22925213  0.69355918    -0.75100
C534        C  0.04678242  0.25090625  0.82447784     0.93040
O535        O  0.94504834  0.24074331  0.76043981    -0.74920
O536        O  0.03235978  0.23461067  0.82349558    -0.82420
Mg537      Mg  0.94690130  0.23749675  0.72084630     1.57960
C538        C  0.06904716  0.30981552  0.75314920     0.92960
O539        O  0.94447305  0.23565216  0.68088665    -0.80690
H540        H  0.04383152  0.26210956  0.69612836    -0.06030
C541        C  0.00388454  0.28514923  0.78439113     0.87900
O542        O  0.02001531  0.19949895  0.75156479    -0.75200
O543        O  0.96806753  0.26760214  0.71915194    -0.87960
O544        O  0.05237135  0.31203813  0.73920754    -0.80770
C545        C  0.99973382  0.32466923  0.68976418     0.93080
C546        C  0.94946853  0.24924859  0.66429340     0.92930
Mg547      Mg  0.04756469  0.26203769  0.76951694     1.57950
O548        O  0.04833848  0.26581425  0.80858904    -0.80690
O549        O  0.05103976  0.25880051  0.73018927    -0.74930
O550        O  0.98792993  0.30679598  0.68563995    -0.80770
O551        O  0.92377982  0.20559039  0.72380888    -0.82480
O552        O  0.00977677  0.19114392  0.80341716    -0.80800
C553        C  0.03820426  0.26496782  0.71363345     0.87360
O554        O  0.02709419  0.23139126  0.77026816    -0.87950
O555        O  0.01637798  0.28141513  0.76758237    -0.88050
O556        O  0.99696209  0.26891711  0.79731631    -0.75110
Mg557      Mg  0.99300493  0.26841661  0.69200311     1.57970
O558        O  0.01261555  0.32634340  0.70726333    -0.82480
H559        H  0.99535405  0.19562377  0.70237761    -0.06210
O560        O  0.97635694  0.22473424  0.77373759    -0.87750
H561        H  0.95226437  0.23777411  0.79453744    -0.06030
H562        H  0.05220879  0.21177247  0.75733984    -0.06210
C563        C  0.95772388  0.23435910  0.77707825     0.87340
C564        C  0.99037654  0.21315260  0.70598369     0.87930
C565        C  0.03395494  0.21420075  0.75980727     0.87970
H566        H  0.99848483  0.30255204  0.78800303    -0.06190
O567        O  0.97477140  0.29958271  0.73772444    -0.75210
Mg568      Mg  0.00346978  0.22975071  0.79822013     1.58000
H569        H  0.94270049  0.28766397  0.73080365    -0.06200
C570        C  0.92425746  0.19040616  0.73964362     0.92960
O571        O  0.98332351  0.17221317  0.78339778    -0.82440
C572        C  0.99746543  0.17344177  0.79999811     0.93020
O573        O  0.96564882  0.26371403  0.66554855    -0.82430
Mg574      Mg  0.01417250  0.30342263  0.73834475     1.58180
O575        O  0.94182550  0.18752576  0.75240240    -0.80760
O576        O  0.06940819  0.29420057  0.76839637    -0.82460
O577        O  0.02381342  0.48202298  0.96960357    -0.88040
C578        C  0.03625698  0.48973504  0.03821213     0.87990
Mg579      Mg  0.02000564  0.51119473  0.94769725     1.58150
O580        O  0.98096701  0.47043435  0.02344955    -0.87770
O581        O  0.00654513  0.45036005  0.98008735    -0.75100
C582        C  0.94063733  0.57305412  0.99666899     0.93040
O583        O  0.05085768  0.52298070  0.99508370    -0.74920
O584        O  0.95602195  0.57390566  0.98126768    -0.82420
Mg585      Mg  0.05336945  0.48347906  0.99120197     1.57960
C586        C  0.92648994  0.50205456  0.05781961     0.92960
O587        O  0.06004281  0.44497319  0.98763119    -0.80690
H588        H  0.95968513  0.44644651  0.01103308    -0.06030
C589        C  0.98608609  0.53943166  0.03522128     0.87900
O590        O  0.98051307  0.50566505  0.94796896    -0.75200
O591        O  0.03147528  0.47918266  0.02039459    -0.87960
O592        O  0.94287008  0.48769753  0.05906802    -0.80770
C593        C  0.00001909  0.44487611  0.07503114     0.93080
C594        C  0.05722502  0.42760060  0.00057100     0.92930
Mg595      Mg  0.94689851  0.51872755  0.00948482     1.57950
O596        O  0.94019450  0.55716393  0.01164699    -0.80690
O597        O  0.94847216  0.47926278  0.00699177    -0.74930
O598        O  0.01408739  0.44299558  0.05838325    -0.80770
O599        O  0.07597914  0.48717647  0.96004828    -0.82480
O600        O  0.98522319  0.55692809  0.94076312    -0.80800
C601        C  0.96298194  0.46450458  0.01387906     0.87360
O602        O  0.96877162  0.52192246  0.97979000    -0.87950
O603        O  0.97697620  0.52084585  0.03053982    -0.88050
O604        O  0.99181672  0.55346267  0.01945760    -0.75110
Mg605      Mg  0.01040132  0.44904093  0.01954750     1.57970
O606        O  0.98525180  0.46088434  0.07592695    -0.82480
H607        H  0.00984751  0.46042763  0.94675840    -0.06210
O608        O  0.01893452  0.53230414  0.97761019    -0.87750
H609        H  0.03932357  0.55584227  0.99223025    -0.06030
H610        H  0.94700121  0.50663415  0.95793901    -0.06210
C611        C  0.03639226  0.53791630  0.98833860     0.87340
C612        C  0.01347750  0.46415872  0.96462543     0.87930
C613        C  0.96455534  0.51129166  0.96185987     0.87970
H614        H  0.98935826  0.54377982  0.05301645    -0.06190
O615        O  0.02069800  0.49645943  0.05198710    -0.75210
Mg616      Mg  0.98850934  0.55290210  0.97976277     1.58000
H617        H  0.05402194  0.49370290  0.04193644    -0.06200
C618        C  0.07520252  0.50241026  0.94448262     0.92960
O619        O  0.01666924  0.54225674  0.92518677    -0.82440
C620        C  0.00053444  0.55682434  0.92517425     0.93020
O621        O  0.04135568  0.42656742  0.01548977    -0.82430
Mg622      Mg  0.98139795  0.49198175  0.05312518     1.58180
O623        O  0.05881485  0.51676848  0.94335043    -0.80760
O624        O  0.92508578  0.51654535  0.04157855    -0.82460
O625        O  0.45811926  0.99958178  0.01601516    -0.88040
C626        C  0.49908546  0.05526270  0.00763602     0.87990
Mg627      Mg  0.46817747  0.97145798  0.03723267     1.58150
O628        O  0.49626435  0.01816821  0.95998088    -0.87770
O629        O  0.44732964  0.00626415  0.98061704    -0.75100
C630        C  0.57253164  0.94486207  0.00308702     0.93040
O631        O  0.49331682  0.02263444  0.05241023    -0.74920
O632        O  0.56077994  0.94558326  0.02155039    -0.82420
Mg633      Mg  0.46155917  0.03304832  0.03141795     1.57960
C634        C  0.55564860  0.99944483  0.92647918     0.92960
O635        O  0.42905448  0.04705760  0.01445329    -0.80690
H636        H  0.47756927  0.00254131  0.93575123    -0.06030
C637        C  0.55210493  0.00930480  0.00117902     0.87900
O638        O  0.47969974  0.95045697  0.00604506    -0.75200
O639        O  0.48242058  0.04295999  0.00301357    -0.87960
O640        O  0.54499058  0.01761273  0.93240717    -0.80770
C641        C  0.50181402  0.07669351  0.94375638     0.93080
C642        C  0.42385223  0.05883863  0.99674249     0.92930
Mg643      Mg  0.53443956  0.97141098  0.96960573     1.57950
O644        O  0.56692243  0.95616683  0.98520150    -0.80690
O645        O  0.50253186  0.98262888  0.94968159    -0.74930
O646        O  0.48375501  0.07094088  0.95473621    -0.80770
O647        O  0.43950674  0.02268434  0.06136278    -0.82480
O648        O  0.51502031  0.93519848  0.04889732    -0.80800
C649        C  0.49173811  0.00143288  0.94773910     0.87360
O650        O  0.51463854  0.96193689  0.99892734    -0.87950
O651        O  0.53922155  0.00482724  0.98492845    -0.88050
O652        O  0.55069245  0.99861874  0.02011453    -0.75110
Mg653      Mg  0.46739867  0.03835121  0.96941901     1.57970
O654        O  0.51984072  0.06439545  0.94382421    -0.82480
H655        H  0.43407052  0.98069697  0.00032819    -0.06210
O656        O  0.50138909  0.98761545  0.04162906    -0.87750
H657        H  0.51913437  0.00372063  0.06628612    -0.06030
H658        H  0.49984701  0.93646935  0.98124701    -0.06210
C659        C  0.50511028  0.00438295  0.05409730     0.87340
C660        C  0.44585292  0.99502315  0.99927878     0.87930
C661        C  0.49839383  0.94890699  0.99499252     0.87970
H662        H  0.56424457  0.02327118  0.99952525    -0.06190
O663        O  0.51789989  0.05358403  0.99673653    -0.75210
Mg664      Mg  0.53050704  0.96718494  0.03214959     1.58000
H665        H  0.49787074  0.06717574  0.02186350    -0.06200
C666        C  0.43962756  0.00483066  0.07393212     0.92960
O667        O  0.47889825  0.94211570  0.05944808    -0.82440
C668        C  0.49711336  0.93014806  0.06041766     0.93020
O669        O  0.43659158  0.05942022  0.97899677    -0.82430
Mg670      Mg  0.52960504  0.03364256  0.96481129     1.58180
O671        O  0.45220125  0.98754376  0.06936214    -0.80760
O672        O  0.55518139  0.98124510  0.93855630    -0.82460
O673        O  0.72860112  0.97876278  0.28055822    -0.88040
C674        C  0.71395757  0.98759112  0.21268536     0.87990
Mg675      Mg  0.73199280  0.00802051  0.30273498     1.58150
O676        O  0.76977227  0.96897890  0.22618259    -0.87770
O677        O  0.74494445  0.94693579  0.26923411    -0.75100
C678        C  0.80505613  0.07494528  0.25030138     0.93040
O679        O  0.69823516  0.01871168  0.25686815    -0.74920
O680        O  0.78922914  0.07532237  0.26528370    -0.82420
Mg681      Mg  0.69806242  0.97918659  0.26015424     1.57960
C682        C  0.82399025  0.00177177  0.19192690     0.92960
O683        O  0.69332705  0.94027459  0.26354687    -0.80690
H684        H  0.79167073  0.94620310  0.23976145    -0.06030
C685        C  0.76188038  0.03764032  0.21416500     0.87900
O686        O  0.77147839  0.00494172  0.30133703    -0.75200
O687        O  0.71924054  0.97674639  0.23019033    -0.87960
O688        O  0.80736155  0.98773417  0.19001525    -0.80770
C689        C  0.74992975  0.94497576  0.17407780     0.93080
C690        C  0.69351627  0.92476031  0.24817603     0.92930
Mg691      Mg  0.80268107  0.01909236  0.23976816     1.57950
O692        O  0.80821854  0.05786077  0.23703576    -0.80690
O693        O  0.80169429  0.97951138  0.24296049    -0.74930
O694        O  0.73611578  0.94266626  0.19085540    -0.80770
O695        O  0.67642501  0.98131846  0.29204442    -0.82480
O696        O  0.76322164  0.05746422  0.30798278    -0.80800
C697        C  0.78779045  0.96403448  0.23628299     0.87360
O698        O  0.78117654  0.02232803  0.26944299    -0.87950
O699        O  0.77249838  0.01990257  0.21893922    -0.88050
O700        O  0.75484403  0.05116315  0.22979378    -0.75110
Mg701      Mg  0.74036548  0.94691421  0.22965773     1.57970
O702        O  0.76509137  0.96057208  0.17360077    -0.82480
H703        H  0.74297888  0.95675917  0.30278165    -0.06210
O704        O  0.73051036  0.02922221  0.27290312    -0.87750
H705        H  0.70824988  0.05202809  0.25997053    -0.06030
H706        H  0.80454197  0.00868604  0.29070176    -0.06210
C707        C  0.71225315  0.03418947  0.26326061     0.87340
C708        C  0.73890369  0.96075901  0.28506980     0.87930
C709        C  0.78659749  0.01202525  0.28723257     0.87970
H710        H  0.75809517  0.04148296  0.19635397    -0.06190
O711        O  0.72916325  0.99468694  0.19866665    -0.75210
Mg712      Mg  0.75910688  0.05181560  0.26917091     1.58000
H713        H  0.69607055  0.99137675  0.20938367    -0.06200
C714        C  0.67729135  0.99669162  0.30744470     0.92960
O715        O  0.73448750  0.03944086  0.32541313    -0.82440
C716        C  0.74907271  0.05559362  0.32453687     0.93020
O717        O  0.70864608  0.92449052  0.23245197    -0.82430
Mg718      Mg  0.76865089  0.99103674  0.19671029     1.58180
O719        O  0.69356855  0.01115297  0.30845901    -0.80760
O720        O  0.82488697  0.01645376  0.20803329    -0.82460
O721        O  0.97180720  0.03246975  0.51825027    -0.88040
C722        C  0.96101752  0.96414681  0.50875600     0.87990
Mg723      Mg  0.97493284  0.05457810  0.48921583     1.58150
O724        O  0.01573792  0.98048671  0.52694783    -0.87770
O725        O  0.98933418  0.02207306  0.54984961    -0.75100
C726        C  0.04753611  0.00225849  0.41974676     0.93040
O727        O  0.94132259  0.00800693  0.47788674    -0.74920
O728        O  0.03071528  0.01605742  0.41990776    -0.82420
Mg729      Mg  0.94219700  0.01035787  0.51731172     1.57960
C730        C  0.07309847  0.94584640  0.49739804     0.92960
O731        O  0.93759127  0.01293786  0.55580837    -0.80690
H732        H  0.03731917  0.99473378  0.54966780    -0.06030
C733        C  0.00701510  0.96476907  0.46021127     0.87900
O734        O  0.01457369  0.05256798  0.49093436    -0.75200
O735        O  0.96542551  0.98228421  0.51892568    -0.87960
O736        O  0.05625324  0.94391564  0.51136905    -0.80770
C737        C  0.99686399  0.93130653  0.55561256     0.93080
C738        C  0.93901837  0.99821457  0.57179895     0.92930
Mg739      Mg  0.04833325  0.99203510  0.47669776     1.57950
O740        O  0.05271923  0.98966326  0.43704423    -0.80690
O741        O  0.04788289  0.99651329  0.51631826    -0.74930
O742        O  0.98042430  0.94475853  0.55179748    -0.80770
O743        O  0.91840272  0.04024684  0.51630208    -0.82480
O744        O  0.00413611  0.05890395  0.43764673    -0.80800
C745        C  0.03366835  0.99068661  0.53187526     0.87360
O746        O  0.02506248  0.02098175  0.47332706    -0.87950
O747        O  0.01953700  0.96917994  0.47686465    -0.88050
O748        O  0.99854448  0.98051436  0.44756427    -0.75110
Mg749      Mg  0.98591570  0.98263944  0.54915522     1.57970
O750        O  0.01380153  0.93030068  0.54189205    -0.82480
H751        H  0.98527105  0.05538262  0.54013094    -0.06210
O752        O  0.97329646  0.02460299  0.46782461    -0.87750
H753        H  0.95085265  0.01277489  0.44458796    -0.06030
H754        H  0.04786572  0.04290923  0.48677258    -0.06210
C755        C  0.95502499  0.01524446  0.46255515     0.87340
C756        C  0.98208848  0.03751259  0.53617996     0.87930
C757        C  0.02999775  0.03891365  0.48360974     0.87970
H758        H  0.00270648  0.94705905  0.45662511    -0.06190
O759        O  0.97682713  0.94999267  0.50338703    -0.75210
Mg760      Mg  0.00156389  0.02005071  0.44479386     1.58000
H761        H  0.94339030  0.96018896  0.50441610    -0.06200
C762        C  0.91887725  0.05722527  0.50275594     0.92960
O763        O  0.97796300  0.07809826  0.45796898    -0.82440
C764        C  0.99220759  0.07687137  0.44140404     0.93020
O765        O  0.95481964  0.98336391  0.57210619    -0.82430
Mg766      Mg  0.01653445  0.94931908  0.50791313     1.58180
O767        O  0.93573340  0.06116097  0.48920680    -0.80760
O768        O  0.07283655  0.96077499  0.48122382    -0.82460
C769        C  0.59536026  0.77271221  0.86866967     0.03430
C770        C  0.57766512  0.77288165  0.85215936    -0.12720
C771        C  0.56865463  0.75266632  0.84308248     0.00930
C772        C  0.57762405  0.73167822  0.85040324    -0.11240
C773        C  0.59649795  0.73071353  0.86551900     0.03420
C774        C  0.60512532  0.75135564  0.87516605    -0.10660
H775        H  0.57114772  0.78913597  0.84579369     0.09020
H776        H  0.57111917  0.71592527  0.84285522     0.06550
H777        H  0.61946560  0.75079567  0.88701577     0.06390
C778        C  0.61228728  0.85434211  0.76937243     0.03430
C779        C  0.62150531  0.86289411  0.74849565    -0.12720
C780        C  0.61507336  0.85252351  0.72741462     0.00930
C781        C  0.59903151  0.83448837  0.72773692    -0.11240
C782        C  0.59032167  0.82570689  0.74824406     0.03420
C783        C  0.59773655  0.83507001  0.76899746    -0.10660
H784        H  0.63299403  0.87752340  0.74865413     0.09020
H785        H  0.59277581  0.82751223  0.71159925     0.06550
H786        H  0.59057171  0.82866779  0.78500259     0.06390
C787        C  0.47730189  0.63551854  0.85403035     0.03430
C788        C  0.47592812  0.65174517  0.83602188    -0.12720
C789        C  0.49586419  0.65925242  0.82465812     0.00930
C790        C  0.51708078  0.65008465  0.83129781    -0.11240
C791        C  0.51887293  0.63324509  0.84849688     0.03420
C792        C  0.49881326  0.62614234  0.86012413    -0.10660
H793        H  0.45940475  0.65904142  0.83145620     0.09020
H794        H  0.53261840  0.65659185  0.82333379     0.06550
H795        H  0.49990607  0.61353962  0.87380166     0.06390
C796        C  0.38106139  0.65178400  0.76948177     0.03430
C797        C  0.39008960  0.67384876  0.76515785    -0.12720
C798        C  0.40114553  0.67872164  0.74451860     0.00930
C799        C  0.39624396  0.66501162  0.72535974    -0.11240
C800        C  0.38267087  0.64511985  0.72788954     0.03420
C801        C  0.37666056  0.63753122  0.75018914    -0.10660
H802        H  0.39161002  0.68636179  0.77885576     0.09020
H803        H  0.40354289  0.66925262  0.70872782     0.06550
H804        H  0.36935704  0.62060532  0.75210906     0.06390
C805        C  0.47690989  0.87195970  0.64927179     0.03430
C806        C  0.47695414  0.85603566  0.66745884    -0.12720
C807        C  0.49727722  0.84673628  0.67592133     0.00930
C808        C  0.51811036  0.85386467  0.66647945    -0.11240
C809        C  0.51867776  0.86794945  0.64680722     0.03420
C810        C  0.49799512  0.87766241  0.63850514    -0.10660
H811        H  0.46077574  0.85005142  0.67453524     0.09020
H812        H  0.53396411  0.84638781  0.67282415     0.06550
H813        H  0.49825522  0.88877327  0.62356157     0.06390
C814        C  0.39640608  0.77171723  0.63438356     0.03430
C815        C  0.41805355  0.77248982  0.64501818    -0.12720
C816        C  0.43058359  0.75243995  0.64864319     0.00930
C817        C  0.42368783  0.73251213  0.63763407    -0.11240
C818        C  0.40071644  0.72991877  0.63043371     0.03420
C819        C  0.38707235  0.75006557  0.62803615    -0.10660
H820        H  0.42402268  0.78846129  0.65255952     0.09020
H821        H  0.43489687  0.71768915  0.63890686     0.06550
H822        H  0.36929077  0.74893016  0.62274484     0.06390
C823        C  0.36339930  0.88270492  0.63148442     0.00870
C824        C  0.38161333  0.86792417  0.63150631     0.00870
C825        C  0.38366483  0.62697894  0.86725867     0.00870
C826        C  0.36526839  0.62690076  0.88202680     0.00870
C827        C  0.64582301  0.86607816  0.51829569     0.03430
C828        C  0.66586875  0.85294660  0.52064160    -0.12720
C829        C  0.67989925  0.84899106  0.50164545     0.00930
C830        C  0.67539651  0.86063335  0.48131871    -0.11240
C831        C  0.65308593  0.86844663  0.47652109     0.03420
C832        C  0.63844802  0.87247311  0.49586837    -0.10660
H833        H  0.66986853  0.84491671  0.53701373     0.09020
H834        H  0.68877292  0.86089358  0.46849867     0.06550
H835        H  0.62155533  0.87988350  0.49381245     0.06390
C836        C  0.86540879  0.77021179  0.60440477     0.03430
C837        C  0.84921216  0.77037793  0.58659503    -0.12720
C838        C  0.84038572  0.75006688  0.57753321     0.00930
C839        C  0.84798218  0.72907121  0.58646942    -0.11240
C840        C  0.86382012  0.72842712  0.60474046     0.03420
C841        C  0.87268101  0.74911700  0.61379388    -0.10660
H842        H  0.84323539  0.78673111  0.57990882     0.09020
H843        H  0.84078720  0.71313989  0.58000855     0.06550
H844        H  0.88488194  0.74879362  0.62786487     0.06390
C845        C  0.72669107  0.85249765  0.61922582     0.03430
C846        C  0.72727265  0.83461072  0.60295987    -0.12720
C847        C  0.74768222  0.82505267  0.59532071     0.00930
C848        C  0.76832050  0.83410268  0.60330570    -0.11240
C849        C  0.76870152  0.85416069  0.61692317     0.03420
C850        C  0.74772834  0.86299717  0.62572995    -0.10660
H851        H  0.71135477  0.82806913  0.59581591     0.09020
H852        H  0.78431529  0.82714983  0.59671713     0.06550
H853        H  0.74782253  0.87793109  0.63681173     0.06390
C854        C  0.84840450  0.63639028  0.47818944     0.03430
C855        C  0.82850360  0.65013898  0.47954816    -0.12720
C856        C  0.82037012  0.65793133  0.50065770     0.00930
C857        C  0.83023948  0.64953309  0.52061398    -0.11240
C858        C  0.84764187  0.63281211  0.52015038     0.03420
C859        C  0.85750923  0.62678313  0.49867457    -0.10660
H860        H  0.82089555  0.65692241  0.46392165     0.09020
H861        H  0.82433033  0.65633576  0.53694990     0.06550
H862        H  0.87217449  0.61540841  0.49792152     0.06390
C863        C  0.72622616  0.64856760  0.38922395     0.03430
C864        C  0.74631884  0.63873216  0.37980116    -0.12720
C865        C  0.76781353  0.64926029  0.38385536     0.00930
C866        C  0.76902128  0.66883485  0.39795430    -0.11240
C867        C  0.74919715  0.67871656  0.40712832     0.03420
C868        C  0.72787632  0.66923526  0.40158401    -0.10660
H869        H  0.74532030  0.62298614  0.36992264     0.09020
H870        H  0.78566918  0.67596282  0.40238652     0.06550
H871        H  0.71241021  0.67688075  0.40863081     0.06390
C872        C  0.62991382  0.73027367  0.39982428     0.03430
C873        C  0.64607900  0.73122232  0.41773921    -0.12720
C874        C  0.65493798  0.75218306  0.42558805     0.00930
C875        C  0.64690611  0.77256951  0.41562881    -0.11240
C876        C  0.63101834  0.77201588  0.39733869     0.03420
C877        C  0.62242424  0.75080793  0.38946963    -0.10660
H878        H  0.65240834  0.71529509  0.42506850     0.09020
H879        H  0.65404493  0.78889629  0.42106121     0.06550
H880        H  0.61048140  0.75027363  0.37517722     0.06390
C881        C  0.86305513  0.63527535  0.38142959     0.00870
C882        C  0.88129164  0.63465214  0.36662122     0.00870
C883        C  0.62244219  0.86654698  0.38066553     0.00870
C884        C  0.62253634  0.88309994  0.36401877     0.00870
C885        C  0.86496354  0.60368417  0.77044308     0.03430
C886        C  0.84974084  0.58498654  0.77161388    -0.12720
C887        C  0.84172317  0.57430359  0.75183084     0.00930
C888        C  0.84916209  0.58234800  0.73049372    -0.11240
C889        C  0.86204148  0.60277973  0.72857109     0.03420
C890        C  0.87051389  0.61327230  0.74881214    -0.10660
H891        H  0.84392247  0.57882252  0.78825262     0.09020
H892        H  0.84299614  0.57390239  0.71505041     0.06550
H893        H  0.88077179  0.62875249  0.74784838     0.06390
C894        C  0.72709328  0.61762958  0.85188199     0.03430
C895        C  0.72634627  0.60192562  0.83351448    -0.12720
C896        C  0.74639375  0.59282487  0.82409852     0.00930
C897        C  0.76756727  0.59951946  0.83326230    -0.11240
C898        C  0.76891374  0.61317291  0.85320043     0.03420
C899        C  0.74849095  0.62277915  0.86230707    -0.10660
H900        H  0.70985946  0.59651457  0.82669972     0.09020
H901        H  0.78322026  0.59249336  0.82599099     0.06550
H902        H  0.74918193  0.63372155  0.87736379     0.06390
C903        C  0.64388433  0.52184008  0.86175660     0.03430
C904        C  0.66346829  0.52029557  0.84759832    -0.12720
C905        C  0.67196631  0.49909172  0.84037412     0.00930
C906        C  0.66178047  0.47917796  0.84859133    -0.11240
C907        C  0.64371684  0.47980839  0.86459470     0.03420
C908        C  0.63420575  0.50135845  0.87084183    -0.10660
H909        H  0.67122284  0.53586313  0.84090326     0.09020
H910        H  0.66806544  0.46275089  0.84242809     0.06550
H911        H  0.61951042  0.50215672  0.88223335     0.06390
C912        C  0.63632160  0.39245193  0.72895161     0.03430
C913        C  0.65196900  0.41075062  0.72871417    -0.12720
C914        C  0.66094655  0.41967229  0.74906883     0.00930
C915        C  0.65459852  0.40974798  0.77006478    -0.11240
C916        C  0.63944005  0.39099208  0.77079067     0.03420
C917        C  0.62998584  0.38238342  0.75010215    -0.10660
H918        H  0.65706435  0.41820931  0.71236659     0.09020
H919        H  0.66177878  0.41633029  0.78598084     0.06550
H920        H  0.61774907  0.36837055  0.75049870     0.06390
C921        C  0.85327741  0.47781708  0.63652250     0.03430
C922        C  0.83384253  0.47907306  0.65083282    -0.12720
C923        C  0.82491061  0.50021710  0.65777723     0.00930
C924        C  0.83402373  0.52026152  0.64843411    -0.11240
C925        C  0.85206701  0.51946631  0.63243198     0.03420
C926        C  0.86221940  0.49817892  0.62681652    -0.10660
H927        H  0.82673957  0.46340323  0.65799622     0.09020
H928        H  0.82729775  0.53676594  0.65390673     0.06550
H929        H  0.87694755  0.49752259  0.61543902     0.06390
C930        C  0.72943057  0.38780636  0.64624255     0.03430
C931        C  0.73146450  0.39991024  0.66713196    -0.12720
C932        C  0.75292124  0.40556296  0.67624821     0.00930
C933        C  0.77254646  0.39663132  0.66597246    -0.11240
C934        C  0.77114973  0.38248659  0.64641048     0.03420
C935        C  0.74947587  0.37855771  0.63603798    -0.10660
H936        H  0.71617818  0.40697782  0.67511885     0.09020
H937        H  0.78922595  0.40135999  0.67283152     0.06550
H938        H  0.74834791  0.36908536  0.62004537     0.06390
C939        C  0.86576175  0.38168773  0.62580438     0.00870
C940        C  0.88365270  0.36656297  0.62572102     0.00870
C941        C  0.62569396  0.38373109  0.86729348     0.00870
C942        C  0.62161573  0.36781576  0.88437152     0.00870
C943        C  0.26842188  0.85676769  0.11558692     0.03430
C944        C  0.26787933  0.83836821  0.09997355    -0.12720
C945        C  0.24702724  0.82905274  0.09260136     0.00930
C946        C  0.22657830  0.83789693  0.10107380    -0.11240
C947        C  0.22649697  0.85516677  0.11797570     0.03420
C948        C  0.24759633  0.86498958  0.12507914    -0.10660
H949        H  0.28383012  0.83189645  0.09279603     0.09020
H950        H  0.21048881  0.83085735  0.09479915     0.06550
H951        H  0.24782480  0.87873864  0.13762766     0.06390
C952        C  0.35155702  0.64040318  0.98111642     0.03430
C953        C  0.33799721  0.65975541  0.98602819    -0.12720
C954        C  0.32579576  0.66168914  0.00640372     0.00930
C955        C  0.33237873  0.64819202  0.02513230    -0.11240
C956        C  0.34975217  0.63134962  0.02247639     0.03420
C957        C  0.35853297  0.62668195  0.00008322    -0.10660
H958        H  0.33550062  0.67307544  0.97327093     0.09020
H959        H  0.32451764  0.65120694  0.04177151     0.06550
H960        H  0.37049074  0.61266204  0.99770996     0.06390
C961        C  0.27164073  0.65010922  0.88239031     0.03430
C962        C  0.27257227  0.66855451  0.89811597    -0.12720
C963        C  0.25244363  0.67796356  0.90720659     0.00930
C964        C  0.23124720  0.66916365  0.90019870    -0.11240
C965        C  0.22974102  0.64952456  0.88621861     0.03420
C966        C  0.25010743  0.64012865  0.87692135    -0.10660
H967        H  0.28904600  0.67537148  0.90351141     0.09020
H968        H  0.21565431  0.67645604  0.90737970     0.06550
H969        H  0.24929842  0.62498753  0.86611917     0.06390
C970        C  0.14272236  0.86508144  0.97944569     0.03430
C971        C  0.16125063  0.84962901  0.97959762    -0.12720
C972        C  0.17130249  0.84267727  0.00014406     0.00930
C973        C  0.16216367  0.85036707  0.02098324    -0.11240
C974        C  0.14260331  0.86446175  0.02152696     0.03420
C975        C  0.13295214  0.87227833  0.00056859    -0.10660
H976        H  0.16833093  0.84347058  0.96345254     0.09020
H977        H  0.16950452  0.84426258  0.03702984     0.06550
H978        H  0.11820732  0.88361975  0.00069461     0.06390
C979        C  0.13842850  0.77307384  0.89346229     0.03430
C980        C  0.15284009  0.77267437  0.91287453    -0.12720
C981        C  0.15962376  0.75200226  0.92283972     0.00930
C982        C  0.15118677  0.73148933  0.91409590    -0.11240
C983        C  0.13482428  0.73126966  0.89622825     0.03420
C984        C  0.12875386  0.75224596  0.88544554    -0.10660
H985        H  0.15999422  0.78860051  0.91942542     0.09020
H986        H  0.15712654  0.71550131  0.92162970     0.06550
H987        H  0.11698514  0.75236075  0.87101891     0.06390
C988        C  0.36214370  0.77142917  0.10520427     0.03430
C989        C  0.34314332  0.77259870  0.09027926    -0.12720
C990        C  0.33245481  0.75279271  0.08280360     0.00930
C991        C  0.33833657  0.73197351  0.09257582    -0.11240
C992        C  0.35879344  0.72946780  0.10506933     0.03420
C993        C  0.37057012  0.74959681  0.11222273    -0.10660
H994        H  0.33730351  0.78897729  0.08355015     0.09020
H995        H  0.32807660  0.71704163  0.08819597     0.06550
H996        H  0.38627608  0.74834497  0.12212282     0.06390
C997        C  0.01853526  0.84782958  0.13708442     0.03430
C998        C  0.01738923  0.83017010  0.15358019    -0.12720
C999        C  0.99661411  0.81998303  0.15926704     0.00930
C1000       C  0.97646511  0.82883480  0.15010838    -0.11240
C1001       C  0.97656803  0.84988796  0.13814944     0.03420
C1002       C  0.99785364  0.85890926  0.13050212    -0.10660
H1003       H  0.03291840  0.82379271  0.16167119     0.09020
H1004       H  0.96028135  0.82097946  0.15502237     0.06550
H1005       H  0.99835772  0.87440260  0.12022978     0.06390
C1006       C  0.87745873  0.72939959  0.14767602     0.03430
C1007       C  0.89239372  0.72686918  0.16656441    -0.12720
C1008       C  0.90234489  0.74608851  0.17711495     0.00930
C1009       C  0.89600065  0.76809137  0.16946599    -0.11240
C1010       C  0.88026116  0.77088023  0.15125645     0.03420
C1011       C  0.87144152  0.75143703  0.13999176    -0.10660
H1012       H  0.89761843  0.70981261  0.17187914     0.09020
H1013       H  0.90373508  0.78313026  0.17729789     0.06550
H1014       H  0.86025903  0.75343655  0.12521374     0.06390
C1015       C  0.09653087  0.86305345  0.23115311     0.03430
C1016       C  0.07701406  0.84881670  0.23161230    -0.12720
C1017       C  0.06726507  0.84171678  0.25241940     0.00930
C1018       C  0.07596529  0.85033359  0.27307366    -0.11240
C1019       C  0.09443546  0.86591134  0.27320023     0.03420
C1020       C  0.10502957  0.87205767  0.25209957    -0.10660
H1021       H  0.07052156  0.84168318  0.21563034     0.09020
H1022       H  0.06874648  0.84437357  0.28922326     0.06550
H1023       H  0.12003978  0.88305762  0.25206420     0.06390
C1024       C  0.01962357  0.64438705  0.36750060     0.03430
C1025       C  0.01952121  0.65828674  0.34778620    -0.12720
C1026       C  0.99932129  0.66738315  0.33917301     0.00930
C1027       C  0.97837650  0.65989852  0.34792459    -0.11240
C1028       C  0.97759480  0.64465969  0.36671917     0.03420
C1029       C  0.99841156  0.63699072  0.37686705    -0.10660
H1030       H  0.03565304  0.66349451  0.33997477     0.09020
H1031       H  0.96257152  0.66652682  0.34057335     0.06550
H1032       H  0.99806636  0.62640922  0.39219236     0.06390
C1033       C  0.89928817  0.63011023  0.22851174     0.03430
C1034       C  0.92259025  0.63661382  0.22938823    -0.12720
C1035       C  0.93185618  0.64525994  0.24944867     0.00930
C1036       C  0.92059594  0.64123475  0.27017765    -0.11240
C1037       C  0.89782742  0.63310545  0.27045068     0.03420
C1038       C  0.88682214  0.62793437  0.24933733    -0.10660
H1039       H  0.93224801  0.63912264  0.21360137     0.09020
H1040       H  0.92837237  0.64741557  0.28598656     0.06550
H1041       H  0.86861905  0.62409449  0.24902493     0.06390
C1042       C  0.11371315  0.77043086  0.35247423     0.03430
C1043       C  0.09986975  0.76868155  0.33272248    -0.12720
C1044       C  0.09250697  0.74745806  0.32450788     0.00930
C1045       C  0.10088624  0.72751111  0.33484584    -0.11240
C1046       C  0.11743324  0.72849587  0.35270674     0.03420
C1047       C  0.12335300  0.75024319  0.36195987    -0.10660
H1048       H  0.09294097  0.78416344  0.32497075     0.09020
H1049       H  0.09461130  0.71106913  0.32873843     0.06550
H1050       H  0.13489970  0.75148394  0.37648639     0.06390
C1051       C  0.02031112  0.60427891  0.88575078     0.03430
C1052       C  0.02031602  0.58383942  0.89872489    -0.12720
C1053       C  0.99996821  0.57477770  0.90741777     0.00930
C1054       C  0.97928556  0.58491930  0.90139759    -0.11240
C1055       C  0.97820269  0.60254838  0.88489874     0.03420
C1056       C  0.99900717  0.61327880  0.87790304    -0.10660
H1057       H  0.03651299  0.57641311  0.90422358     0.09020
H1058       H  0.96363903  0.57844708  0.90919498     0.06550
H1059       H  0.99862532  0.62841183  0.86707817     0.06390
C1060       C  0.89620239  0.61393181  0.01995187     0.03430
C1061       C  0.91305156  0.59676467  0.01838077    -0.12720
C1062       C  0.92254198  0.59059527  0.99735825     0.00930
C1063       C  0.91329409  0.59972656  0.97719365    -0.11240
C1064       C  0.89434351  0.61469910  0.97807957     0.03420
C1065       C  0.88611567  0.62244694  0.99958329    -0.10660
H1066       H  0.91956119  0.58872230  0.03391239     0.09020
H1067       H  0.91985988  0.59405563  0.96066426     0.06550
H1068       H  0.87209692  0.63465161  0.00041182     0.06390
C1069       C  0.01969089  0.39660055  0.11360057     0.03430
C1070       C  0.01997867  0.41645592  0.09985065    -0.12720
C1071       C  0.99963842  0.42661101  0.09247489     0.00930
C1072       C  0.97870243  0.41672607  0.09868894    -0.11240
C1073       C  0.97784214  0.39584724  0.11089732     0.03420
C1074       C  0.99853227  0.38587391  0.11876277    -0.10660
H1075       H  0.03625192  0.42395702  0.09468096     0.09020
H1076       H  0.96290765  0.42441785  0.09244178     0.06550
H1077       H  0.99823053  0.36992930  0.12836362     0.06390
C1078       C  0.88925144  0.52307062  0.10668550     0.03430
C1079       C  0.90334605  0.52290753  0.08703389    -0.12720
C1080       C  0.90943946  0.50227032  0.07639747     0.00930
C1081       C  0.90122354  0.48164585  0.08521025    -0.11240
C1082       C  0.88582129  0.48123544  0.10378596     0.03420
C1083       C  0.88011645  0.50206262  0.11497172    -0.10660
H1084       H  0.91022893  0.53893306  0.08044363     0.09020
H1085       H  0.90661966  0.46566236  0.07726039     0.06550
H1086       H  0.86872071  0.50195119  0.12970942     0.06390
C1087       C  0.10389484  0.38763913  0.01947932     0.03430
C1088       C  0.11250295  0.37956957  0.99824304    -0.12720
C1089       C  0.10143126  0.38614650  0.97761695     0.00930
C1090       C  0.08326602  0.40204539  0.97850499    -0.11240
C1091       C  0.07421750  0.40913580  0.99946595     0.03420
C1092       C  0.08388462  0.40109878  0.01978300    -0.10660
H1093       H  0.12761861  0.36873464  0.99774505     0.09020
H1094       H  0.07597088  0.40881029  0.96271046     0.06550
H1095       H  0.07707199  0.40717233  0.03607881     0.06390
C1096       C  0.10982752  0.48014018  0.89483496     0.03430
C1097       C  0.09870423  0.48118335  0.91630148    -0.12720
C1098       C  0.09232645  0.50214594  0.92591300     0.00930
C1099       C  0.09939106  0.52240668  0.91536190    -0.11240
C1100       C  0.11317788  0.52192340  0.89547937     0.03420
C1101       C  0.11790935  0.50067930  0.88469288    -0.10660
H1102       H  0.09312485  0.46544413  0.92459540     0.09020
H1103       H  0.09434794  0.53873762  0.92281447     0.06550
H1104       H  0.12743684  0.50018052  0.86868733     0.06390
C1105       C  0.34878055  0.61663914  0.27020192     0.03430
C1106       C  0.35760809  0.62478363  0.24896660    -0.12720
C1107       C  0.34674874  0.61848086  0.22795039     0.00930
C1108       C  0.32824987  0.60293871  0.22857783    -0.11240
C1109       C  0.31928339  0.59529969  0.24950121     0.03420
C1110       C  0.32871061  0.60326769  0.27004773    -0.10660
H1111       H  0.37300632  0.63522471  0.24872635     0.09020
H1112       H  0.32119842  0.59623749  0.21265565     0.06550
H1113       H  0.32172819  0.59704752  0.28621335     0.06390
C1114       C  0.27006275  0.39695743  0.13453615     0.03430
C1115       C  0.27067473  0.41575389  0.14967784    -0.12720
C1116       C  0.25041802  0.42585580  0.15753217     0.00930
C1117       C  0.22939636  0.41797950  0.14925249    -0.11240
C1118       C  0.22833332  0.40067185  0.13240719     0.03420
C1119       C  0.24881395  0.38966864  0.12539616    -0.10660
H1120       H  0.28700705  0.42150340  0.15660456     0.09020
H1121       H  0.21368762  0.42537356  0.15603984     0.06550
H1122       H  0.24819384  0.37545215  0.11338650     0.06390
C1123       C  0.36314573  0.47889507  0.14898191     0.03430
C1124       C  0.36969758  0.50002717  0.13882922    -0.12720
C1125       C  0.36215225  0.52087404  0.14874972     0.00930
C1126       C  0.35025495  0.52033663  0.16976379    -0.11240
C1127       C  0.34221537  0.49972328  0.17875792     0.03420
C1128       C  0.34832536  0.47922019  0.16814243    -0.10660
H1129       H  0.38004655  0.50031018  0.12335353     0.09020
H1130       H  0.34511353  0.53631991  0.17786911     0.06550
H1131       H  0.34136790  0.46329645  0.17488964     0.06390
C1132       C  0.14499550  0.38537803  0.26938725     0.03430
C1133       C  0.16406922  0.40017263  0.26980757    -0.12720
C1134       C  0.17503887  0.40653031  0.24955904     0.00930
C1135       C  0.16662674  0.39851512  0.22866514    -0.11240
C1136       C  0.14535361  0.38713031  0.22748303     0.03420
C1137       C  0.13481684  0.37959163  0.24806620    -0.10660
H1138       H  0.17066496  0.40644655  0.28611032     0.09020
H1139       H  0.17520060  0.40371183  0.21291255     0.06550
H1140       H  0.11899281  0.36981850  0.24754004     0.06390
C1141       C  0.13570522  0.47952576  0.35337260     0.03430
C1142       C  0.14687462  0.48024098  0.33193106    -0.12720
C1143       C  0.15312336  0.50103469  0.32182098     0.00930
C1144       C  0.14585401  0.52160124  0.33180990    -0.11240
C1145       C  0.13289921  0.52157369  0.35223646     0.03420
C1146       C  0.12828923  0.50039851  0.36343024    -0.10660
H1147       H  0.15285521  0.46438196  0.32415699     0.09020
H1148       H  0.15117072  0.53777479  0.32421141     0.06550
H1149       H  0.11977659  0.50027818  0.38000363     0.06390
C1150       C  0.26993424  0.59930854  0.36740182     0.03430
C1151       C  0.26898013  0.58135853  0.35119929    -0.12720
C1152       C  0.24804798  0.57197960  0.34443985     0.00930
C1153       C  0.22778175  0.58100759  0.35324665    -0.11240
C1154       C  0.22795419  0.60135934  0.36617122     0.03420
C1155       C  0.24916275  0.61010641  0.37417879    -0.10660
H1156       H  0.28465707  0.57470346  0.34363046     0.09020
H1157       H  0.21152291  0.57377679  0.34765918     0.06550
H1158       H  0.24950935  0.62529131  0.38493387     0.06390
C1159       C  0.39649962  0.61616094  0.47888452     0.03430
C1160       C  0.41543799  0.60119317  0.47936863    -0.12720
C1161       C  0.42511653  0.59413328  0.50019158     0.00930
C1162       C  0.41696940  0.60354538  0.52070691    -0.11240
C1163       C  0.39876448  0.61934241  0.52096793     0.03420
C1164       C  0.38831870  0.62564287  0.49980827    -0.10660
H1165       H  0.42153086  0.59367655  0.46341402     0.09020
H1166       H  0.42412248  0.59758252  0.53687883     0.06550
H1167       H  0.37370557  0.63715059  0.49966685     0.06390
C1168       C  0.59569006  0.38627284  0.47768904     0.03430
C1169       C  0.57301746  0.39308622  0.48210284    -0.12720
C1170       C  0.56766903  0.40413879  0.50254447     0.00930
C1171       C  0.58159199  0.40047062  0.52171809    -0.11240
C1172       C  0.60229105  0.38828122  0.51947426     0.03420
C1173       C  0.61024753  0.38251675  0.49706142    -0.10660
H1174       H  0.56027994  0.39321535  0.46857077     0.09020
H1175       H  0.57703557  0.40811854  0.53812373     0.06550
H1176       H  0.62747801  0.37589860  0.49488508     0.06390
C1177       C  0.61645216  0.47946429  0.39672030     0.03430
C1178       C  0.60002960  0.47903125  0.41459978    -0.12720
C1179       C  0.59237737  0.49946546  0.42500184     0.00930
C1180       C  0.60204635  0.52031280  0.41782238    -0.11240
C1181       C  0.61854542  0.52112488  0.40020639     0.03420
C1182       C  0.62560163  0.50064490  0.38945380    -0.10660
H1183       H  0.59238200  0.46282388  0.41946436     0.09020
H1184       H  0.59596863  0.53627818  0.42528357     0.06550
H1185       H  0.63768355  0.50122929  0.37527603     0.06390
C1186       C  0.47762630  0.39772818  0.61736658     0.03430
C1187       C  0.47689386  0.41623751  0.60174752    -0.12720
C1188       C  0.49707642  0.42560950  0.59292387     0.00930
C1189       C  0.51795387  0.41690320  0.60030103    -0.11240
C1190       C  0.51964856  0.40045602  0.61785374     0.03420
C1191       C  0.49913741  0.39023455  0.62618195    -0.10660
H1192       H  0.46048314  0.42213250  0.59515539     0.09020
H1193       H  0.53346978  0.42323205  0.59216255     0.06550
H1194       H  0.49980612  0.37660605  0.63883385     0.06390
C1195       C  0.37909276  0.47909707  0.60097812     0.03430
C1196       C  0.39549636  0.47950522  0.58330125    -0.12720
C1197       C  0.40400754  0.49996376  0.57440226     0.00930
C1198       C  0.39661021  0.52068031  0.58385082    -0.11240
C1199       C  0.38218387  0.52103560  0.60328236     0.03420
C1200       C  0.37284417  0.50010230  0.61164830    -0.10660
H1201       H  0.40210565  0.46343443  0.57658639     0.09020
H1202       H  0.40363433  0.53666437  0.57732023     0.06550
H1203       H  0.36140741  0.50013880  0.62634906     0.06390
C1204       C  0.47632578  0.60095693  0.38170821     0.03430
C1205       C  0.47563586  0.58182320  0.39652563    -0.12720
C1206       C  0.49565377  0.57132600  0.40435463     0.00930
C1207       C  0.51673883  0.57970251  0.39678943    -0.11240
C1208       C  0.51831351  0.60067595  0.38477825     0.03420
C1209       C  0.49789790  0.61099537  0.37646604    -0.10660
H1210       H  0.45922348  0.57545595  0.40264942     0.09020
H1211       H  0.53229253  0.57132230  0.40270487     0.06550
H1212       H  0.49873207  0.62678005  0.36668225     0.06390
C1213       C  0.62995543  0.35475012  0.97684810     0.03430
C1214       C  0.64688362  0.33769043  0.97419111    -0.12720
C1215       C  0.65675919  0.32712451  0.99339807     0.00930
C1216       C  0.64907520  0.33324146  0.01535637    -0.11240
C1217       C  0.63126267  0.34933554  0.01823221     0.03420
C1218       C  0.62191414  0.36036758  0.99887068    -0.10660
H1219       H  0.65341537  0.33374872  0.95717456     0.09020
H1220       H  0.65717390  0.32562351  0.03033805     0.06550
H1221       H  0.60897060  0.37358326  0.00095526     0.06390
C1222       C  0.64882911  0.27191077  0.88132600     0.03430
C1223       C  0.67155061  0.27253775  0.88968451    -0.12720
C1224       C  0.68264158  0.25253859  0.89653565     0.00930
C1225       C  0.67280301  0.23142732  0.89107230    -0.11240
C1226       C  0.64986376  0.22994787  0.88346543     0.03420
C1227       C  0.63780482  0.25045925  0.87840861    -0.10660
H1228       H  0.67940099  0.28891191  0.89391465     0.09020
H1229       H  0.68189800  0.21590441  0.89593801     0.06550
H1230       H  0.61970895  0.24986791  0.87412208     0.06390
C1231       C  0.85065853  0.27295014  0.11031816     0.03430
C1232       C  0.83045864  0.27304877  0.09710492    -0.12720
C1233       C  0.82023206  0.25253847  0.09015261     0.00930
C1234       C  0.82969129  0.23176620  0.09731275    -0.11240
C1235       C  0.84857399  0.23091665  0.11247468     0.03420
C1236       C  0.85918073  0.25188726  0.11896563    -0.10660
H1237       H  0.82375591  0.28921248  0.09066986     0.09020
H1238       H  0.82234869  0.21601458  0.09061131     0.06550
H1239       H  0.87404628  0.25194344  0.13013528     0.06390
C1240       C  0.86521966  0.15078252  0.97853482     0.03430
C1241       C  0.84762495  0.16726661  0.97994822    -0.12720
C1242       C  0.83935349  0.17472724  0.00116763     0.00930
C1243       C  0.84781501  0.16486524  0.02132714    -0.11240
C1244       C  0.86386926  0.14688651  0.02045448     0.03420
C1245       C  0.87304052  0.14010130  0.99898209    -0.10660
H1246       H  0.84031095  0.17445326  0.96435963     0.09020
H1247       H  0.84090707  0.17029677  0.03780164     0.06550
H1248       H  0.88574670  0.12653412  0.99818196     0.06390
C1249       C  0.77089467  0.13758691  0.89494367     0.03430
C1250       C  0.76964663  0.15028626  0.91543303    -0.12720
C1251       C  0.74857676  0.15683867  0.92467123     0.00930
C1252       C  0.72834310  0.14858883  0.91489916    -0.11240
C1253       C  0.72902886  0.13365203  0.89589351     0.03420
C1254       C  0.75040699  0.12862452  0.88535835    -0.10660
H1255       H  0.78528721  0.15693588  0.92312086     0.09020
H1256       H  0.71194695  0.15398875  0.92195078     0.06550
H1257       H  0.75102080  0.11834249  0.86983840     0.06390
C1258       C  0.76898977  0.36469759  0.09958203     0.03430
C1259       C  0.76914103  0.35026430  0.08013332    -0.12720
C1260       C  0.74896134  0.34451656  0.06880468     0.00930
C1261       C  0.72811833  0.35209766  0.07769044    -0.11240
C1262       C  0.72707099  0.36294504  0.09931635     0.03420
C1263       C  0.74768234  0.37041384  0.10985381    -0.10660
H1264       H  0.78529312  0.34389679  0.07332668     0.09020
H1265       H  0.71235307  0.34718132  0.06902753     0.06550
H1266       H  0.74712786  0.38010836  0.12574394     0.06390
C1267       C  0.59673550  0.98070091  0.87972292     0.03430
C1268       C  0.57911765  0.98016669  0.89625867    -0.12720
C1269       C  0.57080262  0.00030752  0.90617441     0.00930
C1270       C  0.57992758  0.02132553  0.89916956    -0.11240
C1271       C  0.59889328  0.02241622  0.88425671     0.03420
C1272       C  0.60725370  0.00192664  0.87419270    -0.10660
H1273       H  0.57233413  0.96377289  0.90198160     0.09020
H1274       H  0.57359188  0.03701255  0.90699322     0.06550
H1275       H  0.62195748  0.00239690  0.86277785     0.06390
C1276       C  0.61239534  0.90042190  0.97800440     0.03430
C1277       C  0.59891597  0.92041720  0.98000552    -0.12720
C1278       C  0.59189197  0.92859796  0.00147102     0.00930
C1279       C  0.60059194  0.91828205  0.02118940    -0.11240
C1280       C  0.61607844  0.89983682  0.01986121     0.03420
C1281       C  0.62139752  0.89021971  0.99816951    -0.10660
H1282       H  0.59206820  0.92836685  0.96458072     0.09020
H1283       H  0.59489018  0.92434458  0.03789851     0.06550
H1284       H  0.63183742  0.87486317  0.99708358     0.06390
C1285       C  0.38022589  0.10367630  0.97985994     0.03430
C1286       C  0.39525295  0.08485685  0.97832477    -0.12720
C1287       C  0.40393087  0.07440472  0.99803964     0.00930
C1288       C  0.39670957  0.08226722  0.01950666    -0.11240
C1289       C  0.38450903  0.10297458  0.02171280     0.03420
C1290       C  0.37544333  0.11345164  0.00167555    -0.10660
H1291       H  0.40059999  0.07865524  0.96154232     0.09020
H1292       H  0.40299903  0.07375777  0.03486936     0.06550
H1293       H  0.36537549  0.12903992  0.00295334     0.06390
C1294       C  0.47780722  0.11626448  0.89920847     0.03430
C1295       C  0.47959559  0.10393396  0.91994679    -0.12720
C1296       C  0.50081698  0.09677407  0.92832187     0.00930
C1297       C  0.52072845  0.10556537  0.91839141    -0.11240
C1298       C  0.51973313  0.12046548  0.89937777     0.03420
C1299       C  0.49812043  0.12514526  0.88904188    -0.10660
H1300       H  0.46412336  0.09742457  0.92805666     0.09020
H1301       H  0.53729537  0.10009880  0.92497201     0.06550
H1302       H  0.49723318  0.13489071  0.87319607     0.06390
C1303       C  0.39394460  0.97969877  0.11228402     0.03430
C1304       C  0.38421690  0.99974177  0.12204771    -0.12720
C1305       C  0.39425592  0.02139405  0.11738557     0.00930
C1306       C  0.41295022  0.02279520  0.10214287    -0.11240
C1307       C  0.42296297  0.00312444  0.09297962     0.03420
C1308       C  0.41426742  0.98168416  0.09929011    -0.10660
H1309       H  0.36899634  0.99857976  0.13270726     0.09020
H1310       H  0.41960089  0.03949291  0.09718080     0.06550
H1311       H  0.42226971  0.96634306  0.09239219     0.06390
C1312       C  0.47767866  0.88458804  0.10234698     0.03430
C1313       C  0.47761185  0.90162892  0.08528213    -0.12720
C1314       C  0.49792312  0.91076632  0.07667596     0.00930
C1315       C  0.51880549  0.90331201  0.08578069    -0.11240
C1316       C  0.51956558  0.88784510  0.10440517     0.03420
C1317       C  0.49877089  0.87813403  0.11259572    -0.10660
H1318       H  0.46137098  0.90792214  0.07863821     0.09020
H1319       H  0.53464187  0.91063196  0.07922181     0.06550
H1320       H  0.49894646  0.86604212  0.12675673     0.06390
C1321       C  0.84991781  0.11670303  0.26972507     0.03430
C1322       C  0.82973179  0.10342965  0.26961723    -0.12720
C1323       C  0.82146975  0.09398716  0.24929689     0.00930
C1324       C  0.83152902  0.10019876  0.22856857    -0.11240
C1325       C  0.84862754  0.11725218  0.22757129     0.03420
C1326       C  0.85894273  0.12459852  0.24847047    -0.10660
H1327       H  0.82219872  0.09793093  0.28579937     0.09020
H1328       H  0.82565031  0.09185977  0.21295364     0.06550
H1329       H  0.87389751  0.13564810  0.24820034     0.06390
C1330       C  0.86428601  0.98119289  0.14533255     0.03430
C1331       C  0.84935632  0.98130514  0.16433239    -0.12720
C1332       C  0.84171855  0.00186538  0.17391193     0.00930
C1333       C  0.84869827  0.02265729  0.16416197    -0.11240
C1334       C  0.86238885  0.02311400  0.14422600     0.03420
C1335       C  0.87066551  0.00222832  0.13497570    -0.10660
H1336       H  0.84363701  0.96516908  0.17173344     0.09020
H1337       H  0.84229987  0.03864670  0.17130090     0.06550
H1338       H  0.88160765  0.00232529  0.11989595     0.06390
C1339       C  0.76963635  0.89836935  0.13435609     0.03430
C1340       C  0.76962586  0.91876390  0.14727554    -0.12720
C1341       C  0.74922958  0.92791814  0.15562230     0.00930
C1342       C  0.72851641  0.91811312  0.14914633    -0.11240
C1343       C  0.72764585  0.90015787  0.13300265     0.03420
C1344       C  0.74846803  0.88934392  0.12637869    -0.10660
H1345       H  0.78579245  0.92600595  0.15312043     0.09020
H1346       H  0.71280911  0.92474107  0.15668529     0.06550
H1347       H  0.74819493  0.87404868  0.11578341     0.06390
C1348       C  0.63746111  0.97806009  0.35489752     0.03430
C1349       C  0.65159177  0.97737736  0.33530756    -0.12720
C1350       C  0.65967436  0.99752549  0.32535060     0.00930
C1351       C  0.65305948  0.01853240  0.33443054    -0.11240
C1352       C  0.63698924  0.01996505  0.35241702     0.03420
C1353       C  0.62941933  0.99947746  0.36309876    -0.10660
H1354       H  0.65740847  0.96099179  0.32857775     0.09020
H1355       H  0.66030725  0.03405200  0.32706228     0.06550
H1356       H  0.61763137  0.00011886  0.37749103     0.06390
C1357       C  0.64519919  0.88639422  0.26874921     0.03430
C1358       C  0.66462876  0.90077421  0.26860055    -0.12720
C1359       C  0.67476650  0.90775451  0.24802071     0.00930
C1360       C  0.66477298  0.90111231  0.22721550    -0.11240
C1361       C  0.64400602  0.88872844  0.22681295     0.03420
C1362       C  0.63444721  0.88079975  0.24769646    -0.10660
H1363       H  0.67199054  0.90654910  0.28474696     0.09020
H1364       H  0.67228806  0.90701111  0.21117951     0.06550
H1365       H  0.61879800  0.87072804  0.24757884     0.06390
C1366       C  0.76985478  0.10154834  0.36522917     0.03430
C1367       C  0.76948822  0.08218719  0.35086898    -0.12720
C1368       C  0.74884298  0.07365052  0.34217932     0.00930
C1369       C  0.72816187  0.08458686  0.34780385    -0.11240
C1370       C  0.72796421  0.10436404  0.36163444     0.03420
C1371       C  0.74895119  0.11282912  0.37055615    -0.10660
H1372       H  0.78551629  0.07407336  0.34587631     0.09020
H1373       H  0.71215730  0.07818879  0.34069213     0.06550
H1374       H  0.74903640  0.12802561  0.38130733     0.06390
C1375       C  0.61125343  0.35414690  0.26836955     0.03430
C1376       C  0.59955470  0.33304167  0.26654851    -0.12720
C1377       C  0.59272998  0.32439100  0.24522708     0.00930
C1378       C  0.59955392  0.33570130  0.22532589    -0.11240
C1379       C  0.61340719  0.35543383  0.22650369     0.03420
C1380       C  0.61869303  0.36522972  0.24807907    -0.10660
H1381       H  0.59397690  0.32424968  0.28203980     0.09020
H1382       H  0.59422908  0.32901602  0.20872497     0.06550
H1383       H  0.62806422  0.38127301  0.24897113     0.06390
C1384       C  0.38309931  0.14955743  0.27305327     0.03430
C1385       C  0.39776878  0.16875967  0.27378531    -0.12720
C1386       C  0.40492405  0.17942779  0.25359880     0.00930
C1387       C  0.39742498  0.17084849  0.23251540    -0.11240
C1388       C  0.38567411  0.14976185  0.23103284     0.03420
C1389       C  0.37792567  0.13926647  0.25157566    -0.10660
H1390       H  0.40376870  0.17532499  0.29019421     0.09020
H1391       H  0.40316415  0.17928381  0.21687941     0.06550
H1392       H  0.36857898  0.12319591  0.25096810     0.06390
C1393       C  0.47793674  0.14058878  0.35620170     0.03430
C1394       C  0.47955274  0.15315724  0.33561787    -0.12720
C1395       C  0.50073302  0.15990307  0.32669009     0.00930
C1396       C  0.52082794  0.15169226  0.33701898    -0.11240
C1397       C  0.51974261  0.13629918  0.35581567     0.03420
C1398       C  0.49820378  0.13143435  0.36597774    -0.10660
H1399       H  0.46400828  0.15918859  0.32728728     0.09020
H1400       H  0.53735910  0.15683270  0.33011516     0.06550
H1401       H  0.49727013  0.12072210  0.38119207     0.06390
C1402       C  0.60258190  0.27245544  0.36451194     0.03430
C1403       C  0.58561312  0.27377790  0.34731086    -0.12720
C1404       C  0.57867033  0.25400972  0.33587201     0.00930
C1405       C  0.58975274  0.23349595  0.34028080    -0.11240
C1406       C  0.60349709  0.23071844  0.35986820     0.03420
C1407       C  0.61102578  0.25066509  0.37158236    -0.10660
H1408       H  0.57806023  0.29018392  0.34270282     0.09020
H1409       H  0.58560394  0.21879058  0.32956932     0.06550
H1410       H  0.62273785  0.24933584  0.38599555     0.06390
C1411       C  0.47709796  0.36482576  0.14538114     0.03430
C1412       C  0.47858525  0.34736502  0.16205693    -0.12720
C1413       C  0.49954680  0.34101297  0.17141259     0.00930
C1414       C  0.51961411  0.35031789  0.16246333    -0.11240
C1415       C  0.51907046  0.36443446  0.14286519     0.03420
C1416       C  0.49762356  0.37261255  0.13473419    -0.10660
H1417       H  0.46315885  0.33906334  0.16841212     0.09020
H1418       H  0.53600593  0.34465389  0.16933403     0.06550
H1419       H  0.49693709  0.38436547  0.12030890     0.06390
C1420       C  0.39218586  0.27196379  0.13831057     0.03430
C1421       C  0.41172412  0.27149987  0.15249406    -0.12720
C1422       C  0.42158385  0.25069080  0.15924366     0.00930
C1423       C  0.41242487  0.23015053  0.15106432    -0.11240
C1424       C  0.39376769  0.23022290  0.13572807     0.03420
C1425       C  0.38339863  0.25119864  0.12946060    -0.10660
H1426       H  0.41866712  0.28746669  0.15916313     0.09020
H1427       H  0.41989902  0.21397951  0.15656806     0.06550
H1428       H  0.36863459  0.25133130  0.11810943     0.06390
C1429       C  0.13456850  0.35328758  0.47831790     0.03430
C1430       C  0.14514017  0.33155594  0.47940823    -0.12720
C1431       C  0.15070537  0.32153344  0.50056157     0.00930
C1432       C  0.14359128  0.33222353  0.52078287    -0.11240
C1433       C  0.13321320  0.35402095  0.52029644     0.03420
C1434       C  0.12847591  0.36456059  0.49894779    -0.10660
H1435       H  0.15111542  0.32350329  0.46366595     0.09020
H1436       H  0.14845661  0.32472835  0.53717993     0.06550
H1437       H  0.12180956  0.38192688  0.49843656     0.06390
C1438       C  0.35009062  0.27120804  0.61534189     0.03430
C1439       C  0.32971564  0.27113171  0.60238483    -0.12720
C1440       C  0.31945777  0.25052010  0.59568585     0.00930
C1441       C  0.32858345  0.22976879  0.60342031    -0.11240
C1442       C  0.34770015  0.22929377  0.61822002     0.03420
C1443       C  0.35887386  0.25019887  0.62375860    -0.10660
H1444       H  0.32303732  0.28719876  0.59567465     0.09020
H1445       H  0.32114175  0.21382249  0.59728422     0.06550
H1446       H  0.37453914  0.25005505  0.63381804     0.06390
C1447       C  0.36499959  0.15154764  0.47966289     0.03430
C1448       C  0.35031778  0.17075600  0.47963371    -0.12720
C1449       C  0.34282271  0.18049302  0.50027537     0.00930
C1450       C  0.35008455  0.17099705  0.52106157    -0.11240
C1451       C  0.36246867  0.15029486  0.52161373     0.03420
C1452       C  0.37052690  0.14081218  0.50076943    -0.10660
H1453       H  0.34432167  0.17784227  0.46344321     0.09020
H1454       H  0.34414800  0.17857545  0.53705119     0.06550
H1455       H  0.38048652  0.12509514  0.50090898     0.06390
C1456       C  0.26866719  0.36422718  0.60385155     0.03430
C1457       C  0.26615316  0.34840373  0.58571251    -0.12720
C1458       C  0.24457417  0.34188896  0.57776311     0.00930
C1459       C  0.22508076  0.35055959  0.58861074    -0.11240
C1460       C  0.22699374  0.36466164  0.60825224     0.03420
C1461       C  0.24888142  0.37214325  0.61546812    -0.10660
H1462       H  0.28123274  0.34095097  0.57766723     0.09020
H1463       H  0.20829063  0.34485625  0.58285249     0.06550
H1464       H  0.25045393  0.38358307  0.63006974     0.06390
C1465       C  0.14582152  0.27024688  0.38582170     0.03430
C1466       C  0.16404729  0.26994944  0.40167245    -0.12720
C1467       C  0.17364543  0.24938730  0.40897385     0.00930
C1468       C  0.16431717  0.22874599  0.40142268    -0.11240
C1469       C  0.14399381  0.22836905  0.38841888     0.03420
C1470       C  0.13500420  0.24928301  0.37978571    -0.10660
H1471       H  0.17116792  0.28596313  0.40804403     0.09020
H1472       H  0.17159661  0.21274346  0.40765046     0.06550
H1473       H  0.11987966  0.24926835  0.36893400     0.06390
C1474       C  0.27017044  0.13725820  0.39750633     0.03430
C1475       C  0.26972474  0.15053182  0.41773041    -0.12720
C1476       C  0.24909495  0.15808440  0.42714277     0.00930
C1477       C  0.22848483  0.15061052  0.41763517    -0.11240
C1478       C  0.22821736  0.13522784  0.39896398     0.03420
C1479       C  0.24920504  0.12904068  0.38831962    -0.10660
H1480       H  0.28569756  0.15662699  0.42517619     0.09020
H1481       H  0.21245324  0.15677063  0.42489788     0.06550
H1482       H  0.24916648  0.11834378  0.37307953     0.06390
C1483       C  0.02023374  0.36540762  0.64406744     0.03430
C1484       C  0.02015907  0.35034352  0.66288036    -0.12720
C1485       C  0.99951504  0.34313605  0.67272058     0.00930
C1486       C  0.97877946  0.35142179  0.66412969    -0.11240
C1487       C  0.97839755  0.36748863  0.64610588     0.03420
C1488       C  0.99925672  0.37424202  0.63568417    -0.10660
H1489       H  0.03627153  0.34344382  0.66925262     0.09020
H1490       H  0.96278331  0.34514609  0.67138199     0.06550
H1491       H  0.99916851  0.38608539  0.62130222     0.06390
C1492       C  0.90097040  0.22906280  0.63003746     0.03430
C1493       C  0.92433966  0.23009482  0.63631630    -0.12720
C1494       C  0.93375651  0.25026977  0.64453074     0.00930
C1495       C  0.92241110  0.27086194  0.64029905    -0.11240
C1496       C  0.89946203  0.27097785  0.63263086     0.03420
C1497       C  0.88846269  0.24981894  0.62780133    -0.10660
H1498       H  0.93417403  0.21444090  0.63868636     0.09020
H1499       H  0.93044187  0.28675744  0.64579570     0.06550
H1500       H  0.87025285  0.24947586  0.62400818     0.06390
C1501       C  0.11388529  0.35364711  0.76977854     0.03430
C1502       C  0.12200961  0.36066027  0.74799454    -0.12720
C1503       C  0.11301353  0.35038380  0.72787523     0.00930
C1504       C  0.09511861  0.33429109  0.73009902    -0.11240
C1505       C  0.08807515  0.32632994  0.75158674     0.03420
C1506       C  0.09772412  0.33580855  0.77138458    -0.10660
H1507       H  0.13480678  0.37411156  0.74677390     0.09020
H1508       H  0.08653491  0.32775634  0.71489181     0.06550
H1509       H  0.09151853  0.33041994  0.78815219     0.06390
C1510       C  0.09340164  0.23087774  0.86403662     0.03430
C1511       C  0.07228674  0.23127450  0.85222698    -0.12720
C1512       C  0.06367699  0.25165798  0.84326318     0.00930
C1513       C  0.07448174  0.27219139  0.84880768    -0.11240
C1514       C  0.09341382  0.27289839  0.86389688     0.03420
C1515       C  0.10350118  0.25189042  0.87092900    -0.10660
H1516       H  0.06414376  0.21522910  0.84735401     0.09020
H1517       H  0.06808753  0.28789434  0.84106835     0.06550
H1518       H  0.11911938  0.25180917  0.88099629     0.06390
C1519       C  0.01991430  0.13179778  0.84465248     0.03430
C1520       C  0.01916086  0.14653610  0.82544384    -0.12720
C1521       C  0.99821892  0.15498268  0.81722150     0.00930
C1522       C  0.97787183  0.14885153  0.82834025    -0.11240
C1523       C  0.97823415  0.13548180  0.84841985     0.03420
C1524       C  0.99930118  0.12659481  0.85644482    -0.10660
H1525       H  0.03501118  0.15209300  0.81735178     0.09020
H1526       H  0.96170926  0.15597306  0.82234834     0.06550
H1527       H  0.99973916  0.11633935  0.87199999     0.06390
C1528       C  0.87649109  0.14774443  0.72788235     0.03430
C1529       C  0.87060203  0.14085872  0.75031165    -0.12720
C1530       C  0.88157239  0.15102891  0.76939910     0.00930
C1531       C  0.89874198  0.16766771  0.76555584    -0.11240
C1532       C  0.90440461  0.17493053  0.74326849     0.03420
C1533       C  0.89279168  0.16528965  0.72455745    -0.10660
H1534       H  0.85786852  0.12752028  0.75278612     0.09020
H1535       H  0.90804059  0.17480827  0.78006351     0.06550
H1536       H  0.89760986  0.17023334  0.70724041     0.06390
C1537       C  0.26843278  0.11049766  0.85198880     0.03430
C1538       C  0.26542714  0.09924656  0.83076671    -0.12720
C1539       C  0.24368926  0.09306894  0.82271386     0.00930
C1540       C  0.22434214  0.10066264  0.83476230    -0.11240
C1541       C  0.22672033  0.11443166  0.85462468     0.03420
C1542       C  0.24882109  0.11864544  0.86376128    -0.10660
H1543       H  0.28041276  0.09350014  0.82127882     0.09020
H1544       H  0.20741901  0.09609585  0.82856896     0.06550
H1545       H  0.25059553  0.12779619  0.87988474     0.06390
C1546       C  0.35241123  0.98106635  0.63561041     0.03430
C1547       C  0.36351525  0.00123752  0.62748395    -0.12720
C1548       C  0.35386546  0.02313986  0.63243064     0.00930
C1549       C  0.33472610  0.02459664  0.64710970    -0.11240
C1550       C  0.32345600  0.00490835  0.65442004     0.03420
C1551       C  0.33149529  0.98347267  0.64747705    -0.10660
H1552       H  0.37942732  0.00001950  0.61791402     0.09020
H1553       H  0.32845169  0.04122402  0.65273901     0.06550
H1554       H  0.32240245  0.96827354  0.65331184     0.06390
C1555       C  0.26922034  0.88183685  0.64629340     0.03430
C1556       C  0.27054759  0.90114581  0.66081626    -0.12720
C1557       C  0.25077653  0.91328320  0.66626374     0.00930
C1558       C  0.23022005  0.90738216  0.65591928    -0.11240
C1559       C  0.22744070  0.88609610  0.64502800     0.03420
C1560       C  0.24743364  0.87362226  0.63897452    -0.10660
H1561       H  0.28691501  0.90663709  0.66785829     0.09020
H1562       H  0.21550304  0.91847406  0.65874199     0.06550
H1563       H  0.24614509  0.85773375  0.62938357     0.06390
C1564       C  0.14560534  0.98116299  0.86049709     0.03430
C1565       C  0.15958708  0.97975028  0.84072994    -0.12720
C1566       C  0.16395391  0.99896720  0.82767982     0.00930
C1567       C  0.15133916  0.01857871  0.83142680    -0.11240
C1568       C  0.14072383  0.02252669  0.85281631     0.03420
C1569       C  0.13716667  0.00311351  0.86743104    -0.10660
H1570       H  0.16786378  0.96382122  0.83575828     0.09020
H1571       H  0.15244093  0.03190273  0.81844700     0.06550
H1572       H  0.12896361  0.00491123  0.88401331     0.06390
C1573       C  0.13638649  0.89583076  0.76775804     0.03430
C1574       C  0.15081045  0.91495462  0.76489560    -0.12720
C1575       C  0.15545464  0.92400213  0.74302533     0.00930
C1576       C  0.14495286  0.91423637  0.72374856    -0.11240
C1577       C  0.12930587  0.89587770  0.72615098     0.03420
C1578       C  0.12533118  0.88641529  0.74826580    -0.10660
H1579       H  0.15925260  0.92229830  0.77983553     0.09020
H1580       H  0.14905107  0.92085765  0.70678993     0.06550
H1581       H  0.11408387  0.87171749  0.75021231     0.06390
C1582       C  0.36159095  0.10580893  0.77008416     0.03430
C1583       C  0.34608121  0.08725659  0.77057088    -0.12720
C1584       C  0.33843694  0.07731245  0.75014643     0.00930
C1585       C  0.34613253  0.08607957  0.72921337    -0.11240
C1586       C  0.35903926  0.10642847  0.72811254     0.03420
C1587       C  0.36758689  0.11595681  0.74878805    -0.10660
H1588       H  0.34029711  0.08032476  0.78691139     0.09020
H1589       H  0.34049935  0.07788983  0.71342438     0.06550
H1590       H  0.37853307  0.13099624  0.74837688     0.06390
C1591       C  0.01824914  0.89079774  0.59977457     0.03430
C1592       C  0.01594492  0.91141495  0.58741886    -0.12720
C1593       C  0.99602457  0.91634367  0.57575732     0.00930
C1594       C  0.97589951  0.90589560  0.58257883    -0.11240
C1595       C  0.97631678  0.88690130  0.59759151     0.03420
C1596       C  0.99786486  0.87868741  0.60575753    -0.10660
H1597       H  0.03040403  0.92282041  0.58475000     0.09020
H1598       H  0.95989587  0.91214780  0.57538696     0.06550
H1599       H  0.99867555  0.86308874  0.61585619     0.06390
C1600       C  0.89559776  0.02138571  0.61361624     0.03430
C1601       C  0.91179304  0.01956769  0.59587268    -0.12720
C1602       C  0.92165347  0.99871678  0.59006613     0.00930
C1603       C  0.91302316  0.97860543  0.59980421    -0.11240
C1604       C  0.89406520  0.97937835  0.61483865     0.03420
C1605       C  0.88575944  0.00096092  0.62254988    -0.10660
H1606       H  0.91749597  0.03487583  0.58689296     0.09020
H1607       H  0.91969422  0.96215014  0.59412622     0.06550
H1608       H  0.87178422  0.00178263  0.63482253     0.06390
C1609       C  0.09903343  0.02126979  0.38839721     0.03430
C1610       C  0.07625266  0.02245630  0.39654448    -0.12720
C1611       C  0.06349807  0.00264680  0.40020841     0.00930
C1612       C  0.07143285  0.98207328  0.39148230    -0.11240
C1613       C  0.09465898  0.97950104  0.38509631     0.03420
C1614       C  0.10857606  0.99945205  0.38321848    -0.10660
H1615       H  0.06932603  0.03865209  0.40264529     0.09020
H1616       H  0.06035365  0.96719722  0.39326964     0.06550
H1617       H  0.12671031  0.99797610  0.37936541     0.06390
C1618       C  0.11640165  0.90005295  0.48007713     0.03430
C1619       C  0.10107974  0.91874585  0.47900783    -0.12720
C1620       C  0.09249305  0.92902397  0.49916684     0.00930
C1621       C  0.10029682  0.92072829  0.52069009    -0.11240
C1622       C  0.11615985  0.90231307  0.52202793     0.03420
C1623       C  0.12398977  0.89205091  0.50153810    -0.10660
H1624       H  0.09472159  0.92432578  0.46237496     0.09020
H1625       H  0.09343884  0.92803114  0.53641163     0.06550
H1626       H  0.13549278  0.87743099  0.50231390     0.06390
C1627       C  0.01861872  0.11919975  0.39977996     0.03430
C1628       C  0.01617774  0.10315918  0.41767810    -0.12720
C1629       C  0.99442581  0.09617820  0.42510785     0.00930
C1630       C  0.97489611  0.10550888  0.41455584    -0.11240
C1631       C  0.97702932  0.12087029  0.39595498     0.03420
C1632       C  0.99898263  0.12769770  0.38850796    -0.10660
H1633       H  0.03136226  0.09571812  0.42553959     0.09020
H1634       H  0.95799247  0.09969572  0.41980997     0.06550
H1635       H  0.00076823  0.13928309  0.37402037     0.06390
C1636       C  0.88711908  0.10936583  0.52181173     0.03430
C1637       C  0.88054004  0.11794060  0.49982494    -0.12720
C1638       C  0.88310141  0.10373369  0.48004216     0.00930
C1639       C  0.89022570  0.08087183  0.48332974    -0.11240
C1640       C  0.90040764  0.07418795  0.50370465     0.03420
C1641       C  0.89785421  0.08779770  0.52322713    -0.10660
H1642       H  0.87461836  0.13547721  0.49818629     0.09020
H1643       H  0.89140444  0.06914526  0.46886324     0.06550
H1644       H  0.90515814  0.08203421  0.53941177     0.06390
C1645       C  0.13225225  0.13207584  0.38314703     0.00870
C1646       C  0.11474845  0.11653161  0.38474134     0.00870
C1647       C  0.12872715  0.87123800  0.63457207     0.00870
C1648       C  0.11609590  0.87373649  0.61467283     0.00870
C1649       C  0.87614306  0.13261954  0.63529200     0.00870
C1650       C  0.87497334  0.11764345  0.61715357     0.00870
C1651       C  0.11398316  0.13519516  0.86757731     0.00870
C1652       C  0.13317512  0.12164445  0.86707100     0.00870
C1653       C  0.37627876  0.11759022  0.63236811     0.00870
C1654       C  0.37532846  0.13539294  0.61705510     0.00870
C1655       C  0.38058252  0.11443512  0.88428109     0.00870
C1656       C  0.36624839  0.11358875  0.86558888     0.00870
C1657       C  0.11933667  0.38434244  0.88160572     0.00870
C1658       C  0.11747711  0.36843142  0.86442318     0.00870
C1659       C  0.13373083  0.37719052  0.61668891     0.00870
C1660       C  0.11609631  0.37533429  0.63245536     0.00870
C1661       C  0.38174097  0.38351464  0.62146588     0.00870
C1662       C  0.36579189  0.36636565  0.61930832     0.00870
C1663       C  0.38191006  0.12642862  0.36763545     0.00870
C1664       C  0.36631884  0.12728884  0.38521875     0.00870
C1665       C  0.13022907  0.38322453  0.36551796     0.00870
C1666       C  0.13090507  0.36663085  0.38222610     0.00870
C1667       C  0.61353198  0.13140055  0.37235975     0.00870
C1668       C  0.63189303  0.11664780  0.36951240     0.00870
C1669       C  0.38086567  0.11653512  0.11911960     0.00870
C1670       C  0.38301612  0.13479394  0.13378117     0.00870
C1671       C  0.63071595  0.36927923  0.11354098     0.00870
C1672       C  0.61519597  0.36942498  0.13111331     0.00870
C1673       C  0.62108653  0.38550526  0.38030661     0.00870
C1674       C  0.61771883  0.36758252  0.36549214     0.00870
C1675       C  0.36482412  0.38366779  0.12479508     0.00870
C1676       C  0.38152861  0.36726249  0.12406413     0.00870
C1677       C  0.87359230  0.13529678  0.11560200     0.00870
C1678       C  0.87380606  0.11907953  0.13262102     0.00870
C1679       C  0.63381052  0.13339237  0.88220060     0.00870
C1680       C  0.61529534  0.11887275  0.88294976     0.00870
C1681       C  0.61591624  0.87690879  0.11446843     0.00870
C1682       C  0.63219679  0.87710016  0.13143031     0.00870
C1683       C  0.88162134  0.38479718  0.11739104     0.00870
C1684       C  0.86514840  0.36805838  0.11690790     0.00870
C1685       C  0.38182120  0.62491912  0.38225641     0.00870
C1686       C  0.36392457  0.62544521  0.36696627     0.00870
C1687       C  0.11559801  0.38219486  0.11547497     0.00870
C1688       C  0.13320842  0.38057272  0.13087351     0.00870
C1689       C  0.13254663  0.63547192  0.88287764     0.00870
C1690       C  0.11708386  0.61772590  0.88424077     0.00870
C1691       C  0.87871789  0.63681089  0.13142170     0.00870
C1692       C  0.87768294  0.61896759  0.11609102     0.00870
C1693       C  0.13070794  0.86854181  0.11912126     0.00870
C1694       C  0.11314378  0.87070447  0.13467683     0.00870
C1695       C  0.11784612  0.63565175  0.37753143     0.00870
C1696       C  0.13224719  0.61682068  0.37601157     0.00870
C1697       C  0.11412946  0.86698513  0.36906153     0.00870
C1698       C  0.11538967  0.88184057  0.38734160     0.00870
C1699       C  0.36509354  0.86696611  0.11929139     0.00870
C1700       C  0.38207921  0.88314657  0.12072801     0.00870
C1701       C  0.86593934  0.11947146  0.36609809     0.00870
C1702       C  0.88420251  0.12062918  0.38096697     0.00870
C1703       C  0.37384675  0.61662599  0.13345470     0.00870
C1704       C  0.37455818  0.63046726  0.11422213     0.00870
C1705       C  0.88099099  0.86678404  0.13333579     0.00870
C1706       C  0.86582977  0.88475553  0.13337492     0.00870
C1707       C  0.86490877  0.86674439  0.61433791     0.00870
C1708       C  0.88120814  0.88360878  0.61653599     0.00870
C1709       C  0.86551273  0.62057359  0.86589151     0.00870
C1710       C  0.88185135  0.62205538  0.88276146     0.00870
C1711       C  0.61610266  0.86785768  0.86597665     0.00870
C1712       C  0.61580273  0.88621304  0.88065146     0.00870
C1713       C  0.37598269  0.63257679  0.63451069     0.00870
C1714       C  0.37600896  0.61728691  0.61663945     0.00870
C1715       C  0.86757552  0.12939790  0.88329150     0.00870
C1716       C  0.88315877  0.13020714  0.86581814     0.00870
C1717       C  0.62980305  0.63441075  0.38299593     0.00870
C1718       C  0.61514344  0.61611102  0.38238624     0.00870
C1719       C  0.61399753  0.63412977  0.86878700     0.00870
C1720       C  0.63217723  0.61925900  0.86997855     0.00870
C1721       C  0.63051547  0.86808837  0.61370133     0.00870
C1722       C  0.61412592  0.86870892  0.63065628     0.00870
C1723       C  0.63273921  0.38897458  0.63225069     0.00870
C1724       C  0.61684362  0.38768271  0.61486851     0.00870
C1725       C  0.13456178  0.86910484  0.88204867     0.00870
C1726       C  0.13417284  0.88584137  0.86547089     0.00870
C1727       C  0.86705408  0.63216520  0.61573506     0.00870
C1728       C  0.86774734  0.61476927  0.63155366     0.00870
C1729       C  0.88322257  0.11193063  0.45543377     0.00150
C1730       C  0.90020516  0.10226276  0.44118996    -0.11730
C1731       C  0.89810470  0.10215378  0.41750018     0.02380
C1732       C  0.88206047  0.11668832  0.40656316     0.00060
C1733       C  0.86654522  0.12905592  0.42065466    -0.11670
C1734       C  0.86630774  0.12588389  0.44488928     0.02270
H1735       H  0.91427042  0.09251785  0.44862718     0.15250
H1736       H  0.85439017  0.14076924  0.41280576     0.15250
C1737       C  0.84851734  0.13672335  0.45827516     0.36900
C1738       C  0.91111843  0.08480111  0.40541165     0.36810
N1739       N  0.83423057  0.14548198  0.46899842    -0.43440
N1740       N  0.92138634  0.07015116  0.39670698    -0.43440
C1741       C  0.88344265  0.12175522  0.54399667     0.00150
C1742       C  0.86127550  0.12160470  0.55344451    -0.11730
C1743       C  0.85797241  0.12316837  0.57737130     0.02380
C1744       C  0.87703808  0.12483819  0.59235400     0.00060
C1745       C  0.89887583  0.12838186  0.58263366    -0.11670
C1746       C  0.90218722  0.12683384  0.55868409     0.02270
H1747       H  0.84669344  0.11801525  0.54238638     0.15250
H1748       H  0.91362397  0.13051610  0.59382263     0.15250
C1749       C  0.92525731  0.12845908  0.54967677     0.36900
C1750       C  0.83484800  0.12208308  0.58618234     0.36810
N1751       N  0.94373357  0.12975872  0.54241715    -0.43440
N1752       N  0.81614425  0.12161487  0.59291897    -0.43440
C1753       C  0.95588072  0.12751038  0.38342409     0.00150
C1754       C  0.94706452  0.11203677  0.36727519    -0.11730
C1755       C  0.92346850  0.11143327  0.36225112     0.02380
C1756       C  0.90830635  0.12694723  0.37356470     0.00060
C1757       C  0.91825558  0.14533154  0.38587387    -0.11670
C1758       C  0.94170697  0.14531876  0.39144493     0.02270
H1759       H  0.95816293  0.09850323  0.36080772     0.15250
H1760       H  0.90712168  0.15778603  0.39416091     0.15250
C1761       C  0.95032211  0.16216392  0.40748219     0.36900
C1762       C  0.91590914  0.09213512  0.34874148     0.36810
N1763       N  0.95729165  0.17564021  0.42035204    -0.43440
N1764       N  0.91184923  0.07599910  0.33784472    -0.43440
C1765       C  0.04217605  0.12537421  0.39247367     0.00150
C1766       C  0.05081732  0.11627200  0.37187878    -0.11730
C1767       C  0.07457951  0.11547197  0.36785262     0.02380
C1768       C  0.09003937  0.12378486  0.38467639     0.00060
C1769       C  0.08108544  0.13517528  0.40401144    -0.11670
C1770       C  0.05741283  0.13602249  0.40801036     0.02270
H1771       H  0.03914437  0.10822571  0.35975987     0.15250
H1772       H  0.09251050  0.14134252  0.41728542     0.15250
C1773       C  0.04920577  0.14635462  0.42907143     0.36900
C1774       C  0.08269474  0.10505512  0.34683491     0.36810
N1775       N  0.04259561  0.15461388  0.44593928    -0.43440
N1776       N  0.08907526  0.09675256  0.32989852    -0.43440
C1777       C  0.12241380  0.88773722  0.45849850     0.00150
C1778       C  0.10764590  0.87049364  0.45054029    -0.11730
C1779       C  0.10756232  0.86394181  0.42722694     0.02380
C1780       C  0.12257008  0.87507336  0.41144210     0.00060
C1781       C  0.14045098  0.88856035  0.42079849    -0.11670
C1782       C  0.14002439  0.89553785  0.44392278     0.02270
H1783       H  0.09448836  0.86390417  0.46202601     0.15250
H1784       H  0.15263434  0.89668780  0.40923514     0.15250
C1785       C  0.15639266  0.91243106  0.45174019     0.36900
C1786       C  0.08942563  0.84862733  0.42027872     0.36810
N1787       N  0.16949628  0.92597937  0.45807588    -0.43440
N1788       N  0.07435337  0.83622285  0.41650407    -0.43440
C1789       C  0.12264721  0.89224059  0.54485990     0.00150
C1790       C  0.13396234  0.90580476  0.56139880    -0.11730
C1791       C  0.13638609  0.89824231  0.58436951     0.02380
C1792       C  0.12698908  0.87677953  0.59117633     0.00060
C1793       C  0.11866988  0.86208701  0.57378879    -0.11670
C1794       C  0.11603576  0.86970831  0.55101973     0.02270
H1795       H  0.13945521  0.92299705  0.55675953     0.15250
H1796       H  0.11115039  0.84574944  0.57871701     0.15250
C1797       C  0.10384118  0.85507534  0.53509134     0.36900
C1798       C  0.14479623  0.91441142  0.60119613     0.36810
N1799       N  0.09394169  0.84340135  0.52237637    -0.43440
N1800       N  0.15152249  0.92747681  0.61461568    -0.43440
C1801       C  0.11256632  0.04306683  0.38927333     0.00150
C1802       C  0.11027836  0.05629440  0.40933445    -0.11730
C1803       C  0.11166337  0.08017421  0.40852942     0.02380
C1804       C  0.11881940  0.09129956  0.38807988     0.00060
C1805       C  0.12553174  0.07761023  0.36924061    -0.11670
C1806       C  0.12175849  0.05364605  0.36943777     0.02270
H1807       H  0.10385930  0.04820470  0.42491005     0.15250
H1808       H  0.13127432  0.08587222  0.35353108     0.15250
C1809       C  0.12528986  0.04074263  0.34855445     0.36900
C1810       C  0.10284163  0.09247898  0.42821052     0.36810
N1811       N  0.12815788  0.03035557  0.33181482    -0.43440
N1812       N  0.09536934  0.10168828  0.44421178    -0.43440
C1813       C  0.10381304  0.95545605  0.38576606     0.00150
C1814       C  0.09463557  0.94117605  0.40293958    -0.11730
C1815       C  0.09551422  0.91755413  0.40111964     0.02380
C1816       C  0.11044870  0.90710958  0.38508562     0.00060
C1817       C  0.12234208  0.92142766  0.36943895    -0.11670
C1818       C  0.11823392  0.94539929  0.36895708     0.02270
H1819       H  0.08447421  0.94843635  0.41682294     0.15250
H1820       H  0.13437053  0.91392633  0.35735515     0.15250
C1821       C  0.12850679  0.95901452  0.35096828     0.36900
C1822       C  0.07870886  0.90492881  0.41434624     0.36810
N1823       N  0.13678488  0.96992713  0.33652219    -0.43440
N1824       N  0.06447580  0.89572706  0.42478162    -0.43440
C1825       C  0.88211121  0.95718692  0.61911031     0.00150
C1826       C  0.87286280  0.94618409  0.59975551    -0.11730
C1827       C  0.87055073  0.92226344  0.59891048     0.02380
C1828       C  0.87573231  0.90876824  0.61851230     0.00060
C1829       C  0.88193301  0.92028456  0.63896043    -0.11670
C1830       C  0.88572292  0.94420405  0.63923275     0.02270
H1831       H  0.87042480  0.95606588  0.58408332     0.15250
H1832       H  0.88595262  0.91036894  0.65419336     0.15250
C1833       C  0.89560914  0.95463049  0.65946150     0.36900
C1834       C  0.86665346  0.91247182  0.57650323     0.36810
N1835       N  0.90363289  0.96302483  0.67563095    -0.43440
N1836       N  0.86428252  0.90601420  0.55782670    -0.43440
C1837       C  0.88971148  0.04524161  0.62110144     0.00150
C1838       C  0.86676335  0.05252628  0.62354226    -0.11730
C1839       C  0.86139040  0.07619390  0.62437521     0.02380
C1840       C  0.87891700  0.09264102  0.62094927     0.00060
C1841       C  0.90165743  0.08518087  0.61940933    -0.11670
C1842       C  0.90726030  0.06211486  0.62160992     0.02270
H1843       H  0.85306246  0.03992370  0.62394643     0.15250
H1844       H  0.91536880  0.09767718  0.61765921     0.15250
C1845       C  0.93133949  0.05624224  0.62392023     0.36900
C1846       C  0.83803245  0.08310633  0.62870457     0.36810
N1847       N  0.95058607  0.05157456  0.62574484    -0.43440
N1848       N  0.81931038  0.08846978  0.63271339    -0.43440
C1849       C  0.04244004  0.88272351  0.60384636     0.00150
C1850       C  0.04931247  0.86885877  0.62251661    -0.11730
C1851       C  0.07301832  0.86418338  0.62626041     0.02380
C1852       C  0.09007591  0.87715388  0.61418076     0.00060
C1853       C  0.08203053  0.89228765  0.59717037    -0.11670
C1854       C  0.05994590  0.89076207  0.58912945     0.02270
H1855       H  0.03642658  0.86080566  0.63328739     0.15250
H1856       H  0.09346493  0.90314065  0.58746294     0.15250
C1857       C  0.05645886  0.89527462  0.56483013     0.36900
C1858       C  0.07865850  0.84491183  0.64072209     0.36810
N1859       N  0.05390761  0.89854090  0.54534878    -0.43440
N1860       N  0.08255508  0.82912476  0.65218303    -0.43440
C1861       C  0.95359010  0.87646648  0.60306858     0.00150
C1862       C  0.94586022  0.87535508  0.62601769    -0.11730
C1863       C  0.92208161  0.87525112  0.63097025     0.02380
C1864       C  0.90607500  0.87837042  0.61292644     0.00060
C1865       C  0.91414361  0.87885370  0.59033883    -0.11670
C1866       C  0.93711364  0.87493953  0.58529367     0.02270
H1867       H  0.95820130  0.87608523  0.63997519     0.15250
H1868       H  0.90243372  0.88257042  0.57643564     0.15250
C1869       C  0.94366377  0.87203563  0.56143606     0.36900
C1870       C  0.91460682  0.87323774  0.65453717     0.36810
N1871       N  0.94889864  0.86973710  0.54235360    -0.43440
N1872       N  0.90858214  0.87147449  0.67344265    -0.43440
C1873       C  0.36266043  0.11679911  0.70485780     0.00150
C1874       C  0.38481525  0.12280419  0.69722937    -0.11730
C1875       C  0.38922824  0.12600436  0.67357427     0.02380
C1876       C  0.37174924  0.12152724  0.65735646     0.00060
C1877       C  0.34927768  0.11807610  0.66520961    -0.11670
C1878       C  0.34443285  0.11704549  0.68867262     0.02270
H1879       H  0.39883432  0.12381767  0.70946771     0.15250
H1880       H  0.33549520  0.11554895  0.65289368     0.15250
C1881       C  0.32063040  0.11525727  0.69563928     0.36900
C1882       C  0.41171315  0.13340005  0.66628530     0.36810
N1883       N  0.30159451  0.11380619  0.70123337    -0.43440
N1884       N  0.42966519  0.13964034  0.66042093    -0.43440
C1885       C  0.37114451  0.11343105  0.79246276     0.00150
C1886       C  0.38419117  0.09740629  0.80477974    -0.11730
C1887       C  0.38560716  0.09823893  0.82882651     0.02380
C1888       C  0.37426049  0.11602468  0.84105661     0.00060
C1889       C  0.36444318  0.13408945  0.82816048    -0.11670
C1890       C  0.36243396  0.13272253  0.80410703     0.02270
H1891       H  0.39104294  0.08258639  0.79573402     0.15250
H1892       H  0.35604943  0.14812683  0.83709333     0.15250
C1893       C  0.34917677  0.14991034  0.79211837     0.36900
C1894       C  0.39618312  0.07870421  0.83967600     0.36810
N1895       N  0.33853976  0.16368858  0.78249284    -0.43440
N1896       N  0.40474978  0.06212044  0.84651750    -0.43440
C1897       C  0.13388703  0.88613688  0.79146585     0.00150
C1898       C  0.11311024  0.88884761  0.80345523    -0.11730
C1899       C  0.11219668  0.88608814  0.82755432     0.02380
C1900       C  0.13232107  0.88070469  0.84011037     0.00060
C1901       C  0.15222722  0.87514790  0.82766684    -0.11670
C1902       C  0.15326010  0.87802317  0.80369655     0.02270
H1903       H  0.09796808  0.89462040  0.79424609     0.15250
H1904       H  0.16759292  0.87017379  0.83675060     0.15250
C1905       C  0.17487643  0.87392485  0.79218334     0.36900
C1906       C  0.09051288  0.88936874  0.83909959     0.36810
N1907       N  0.19222425  0.87071727  0.78298605    -0.43440
N1908       N  0.07301289  0.89176116  0.84825482    -0.43440
C1909       C  0.11927294  0.88581617  0.70476168     0.00150
C1910       C  0.12551289  0.86341535  0.69844751    -0.11730
C1911       C  0.12459423  0.85646812  0.67530370     0.02380
C1912       C  0.11751651  0.87218059  0.65802550     0.00060
C1913       C  0.10745039  0.89302228  0.66503939    -0.11670
C1914       C  0.10833314  0.89991157  0.68821069     0.02270
H1915       H  0.13361793  0.85229603  0.71103899     0.15250
H1916       H  0.10185214  0.90528379  0.65215721     0.15250
C1917       C  0.10002382  0.92249344  0.69426157     0.36900
C1918       C  0.13455059  0.83459530  0.66913498     0.36810
N1919       N  0.09342215  0.94058548  0.69920999    -0.43440
N1920       N  0.14262975  0.81715271  0.66405841    -0.43440
C1921       C  0.14196710  0.95908951  0.87315325     0.00150
C1922       C  0.16124711  0.94466140  0.87459593    -0.11730
C1923       C  0.15900856  0.92123432  0.87026456     0.02380
C1924       C  0.13719998  0.91067935  0.87154402     0.00060
C1925       C  0.11792232  0.92475331  0.87561837    -0.11670
C1926       C  0.12000012  0.94892545  0.87511823     0.02270
H1927       H  0.17826321  0.95226544  0.87356931     0.15250
H1928       H  0.10104512  0.91703745  0.87683611     0.15250
C1929       C  0.09942281  0.96268609  0.87412270     0.36900
C1930       C  0.17889473  0.90979097  0.86083867     0.36810
N1931       N  0.08289341  0.97370064  0.87322824    -0.43440
N1932       N  0.19524203  0.90157792  0.85301691    -0.43440
C1933       C  0.13749333  0.04754080  0.85919266     0.00150
C1934       C  0.15257146  0.06329732  0.84854947    -0.11730
C1935       C  0.14758057  0.08639482  0.84731119     0.02380
C1936       C  0.13188096  0.09612550  0.86283386     0.00060
C1937       C  0.11809404  0.08101695  0.87603761    -0.11670
C1938       C  0.11973748  0.05684116  0.87311027     0.02270
H1939       H  0.16772007  0.05760671  0.83932974     0.15250
H1940       H  0.10586882  0.08796856  0.88824912     0.15250
C1941       C  0.10289571  0.04240283  0.88411629     0.36900
C1942       C  0.15757530  0.09911192  0.82843880     0.36810
N1943       N  0.08920707  0.03094447  0.89290372    -0.43440
N1944       N  0.16524622  0.10852582  0.81265359    -0.43440
C1945       C  0.20321453  0.87763139  0.64277432     0.00150
C1946       C  0.19488600  0.86586677  0.62330815    -0.11730
C1947       C  0.17096998  0.86179205  0.62061492     0.02380
C1948       C  0.15491454  0.87281795  0.63554685     0.00060
C1949       C  0.16410887  0.88457399  0.65462581    -0.11670
C1950       C  0.18715615  0.88377257  0.65989803     0.02270
H1951       H  0.20691195  0.85940833  0.61062289     0.15250
H1952       H  0.15323557  0.89338875  0.66682380     0.15250
C1953       C  0.19359266  0.88869666  0.68349218     0.36900
C1954       C  0.16403270  0.84486630  0.60393150     0.36810
N1955       N  0.19845182  0.89235704  0.70245705    -0.43440
N1956       N  0.15894291  0.83092965  0.59067101    -0.43440
C1957       C  0.37463198  0.09286684  0.62498847     0.00150
C1958       C  0.35409564  0.08516773  0.61490581    -0.11730
C1959       C  0.34874895  0.06175074  0.61386130     0.02380
C1960       C  0.36347340  0.04539269  0.62418804     0.00060
C1961       C  0.38499335  0.05269706  0.63216797    -0.11670
C1962       C  0.39074424  0.07619129  0.63240230     0.02270
H1963       H  0.34120603  0.09745454  0.60961769     0.15250
H1964       H  0.39654945  0.04030899  0.63994181     0.15250
C1965       C  0.41294056  0.08265566  0.64125708     0.36900
C1966       C  0.32695486  0.05502776  0.60400983     0.36810
N1967       N  0.43101151  0.08724384  0.64817138    -0.43440
N1968       N  0.30949951  0.04959193  0.59617152    -0.43440
C1969       C  0.20551883  0.12443541  0.86475228     0.00150
C1970       C  0.19356906  0.14047905  0.85145973    -0.11730
C1971       C  0.16976653  0.14343036  0.85384488     0.02380
C1972       C  0.15748786  0.13043668  0.87061526     0.00060
C1973       C  0.17065943  0.11812520  0.88693861    -0.11670
C1974       C  0.19432515  0.11442980  0.88370645     0.02270
H1975       H  0.20239120  0.14852144  0.83708261     0.15250
H1976       H  0.16185227  0.10843126  0.90023409     0.15250
C1977       C  0.20607950  0.09821203  0.89832577     0.36900
C1978       C  0.15914151  0.15668100  0.83586382     0.36810
N1979       N  0.21552688  0.08518657  0.91002546    -0.43440
N1980       N  0.15281922  0.16759377  0.82046668    -0.43440
C1981       C  0.29230160  0.11106366  0.86163597     0.00150
C1982       C  0.30548634  0.09103016  0.85896616    -0.11730
C1983       C  0.32933411  0.09152195  0.86034791     0.02380
C1984       C  0.34070136  0.11155792  0.86796014     0.00060
C1985       C  0.32737900  0.13102253  0.87342610    -0.11670
C1986       C  0.30339248  0.13114736  0.86967497     0.02270
H1987       H  0.29722925  0.07522775  0.85347943     0.15250
H1988       H  0.33596526  0.14671433  0.87864265     0.15250
C1989       C  0.29109253  0.15249829  0.87218064     0.36900
C1990       C  0.34145924  0.07138202  0.85239380     0.36810
N1991       N  0.28127206  0.16967633  0.87412404    -0.43440
N1992       N  0.35031439  0.05476434  0.84600143    -0.43440
C1993       C  0.87620364  0.14443893  0.79364259     0.00150
C1994       C  0.87349938  0.16216685  0.80980446    -0.11730
C1995       C  0.87406016  0.15775801  0.83343980     0.02380
C1996       C  0.87623392  0.13495584  0.84151628     0.00060
C1997       C  0.87658868  0.11697244  0.82540457    -0.11670
C1998       C  0.87694979  0.12148838  0.80163250     0.02270
H1999       H  0.87260209  0.17983839  0.80390966     0.15250
H2000       H  0.87815801  0.09942324  0.83136781     0.15250
C2001       C  0.88026866  0.10242759  0.78610625     0.36900
C2002       C  0.87450524  0.17729020  0.84872993     0.36810
N2003       N  0.88295588  0.08709244  0.77371621    -0.43440
N2004       N  0.87500794  0.19329825  0.86053974    -0.43440
C2005       C  0.86883010  0.13483850  0.70733603     0.00150
C2006       C  0.88405277  0.11847603  0.69857930    -0.11730
C2007       C  0.88532963  0.11417417  0.67487164     0.02380
C2008       C  0.87002338  0.12572841  0.65960972     0.00060
C2009       C  0.85164908  0.13812392  0.66943448    -0.11670
C2010       C  0.85137482  0.14333891  0.69300779     0.02270
H2011       H  0.89742732  0.11185496  0.70981468     0.15250
H2012       H  0.83943110  0.14664626  0.65820307     0.15250
C2013       C  0.83468480  0.15948038  0.70166748     0.36900
C2014       C  0.90573165  0.10221625  0.66759950     0.36810
N2015       N  0.82131222  0.17240333  0.70870672    -0.43440
N2016       N  0.92302875  0.09317792  0.66376461    -0.43440
C2017       C  0.95620110  0.13255032  0.86100324     0.00150
C2018       C  0.94510717  0.11116494  0.86063673    -0.11730
C2019       C  0.92143009  0.10953884  0.86518468     0.02380
C2020       C  0.90853097  0.12957033  0.86984209     0.00060
C2021       C  0.92026189  0.15039464  0.87292666    -0.11670
C2022       C  0.94388683  0.15199735  0.86874446     0.02270
H2023       H  0.95448061  0.09607880  0.85500455     0.15250
H2024       H  0.91077610  0.16586074  0.87688257     0.15250
C2025       C  0.95481169  0.17420342  0.87075510     0.36900
C2026       C  0.91047601  0.08738000  0.86352660     0.36810
N2027       N  0.96355132  0.19199480  0.87234453    -0.43440
N2028       N  0.90176378  0.06955623  0.86222751    -0.43440
C2029       C  0.04286514  0.12482321  0.85358380     0.00150
C2030       C  0.04960762  0.13239199  0.87546791    -0.11730
C2031       C  0.07289492  0.13289525  0.88164660     0.02380
C2032       C  0.08992318  0.12593276  0.86572446     0.00060
C2033       C  0.08282873  0.11501636  0.84535148    -0.11670
C2034       C  0.05952732  0.11463399  0.83908979     0.02270
H2035       H  0.03692066  0.13970429  0.88701714     0.15250
H2036       H  0.09560940  0.10898599  0.83319318     0.15250
C2037       C  0.05326308  0.10514265  0.81700249     0.36900
C2038       C  0.07899037  0.14175321  0.90402352     0.36810
N2039       N  0.04819158  0.09759192  0.79928827    -0.43440
N2040       N  0.08375181  0.14875636  0.92204758    -0.43440
C2041       C  0.10545440  0.20827716  0.86495280     0.00150
C2042       C  0.10488551  0.19513253  0.84469819    -0.11730
C2043       C  0.10819041  0.17154201  0.84520531     0.02380
C2044       C  0.11527159  0.16071754  0.86578258     0.00060
C2045       C  0.11931109  0.17434657  0.88538973    -0.11670
C2046       C  0.11384740  0.19797666  0.88529948     0.02270
H2047       H  0.09952489  0.20303448  0.82863647     0.15250
H2048       H  0.12475945  0.16618391  0.90124816     0.15250
C2049       C  0.11524279  0.21068345  0.90654031     0.36900
C2050       C  0.10356229  0.15894490  0.82423290     0.36810
N2051       N  0.11640071  0.22088846  0.92359509    -0.43440
N2052       N  0.09997827  0.14932402  0.80716589    -0.43440
C2053       C  0.10168649  0.29624557  0.87079321     0.00150
C2054       C  0.08459787  0.31292056  0.87429304    -0.11730
C2055       C  0.08922238  0.33614696  0.87138687     0.02380
C2056       C  0.11216320  0.34381470  0.86964075     0.00060
C2057       C  0.12987640  0.32732052  0.86985492    -0.11670
C2058       C  0.12480879  0.30363459  0.86934133     0.02270
H2059       H  0.06681564  0.30761027  0.87624746     0.15250
H2060       H  0.14759380  0.33289356  0.86865004     0.15250
C2061       C  0.14338637  0.28774001  0.86535463     0.36900
C2062       C  0.06962791  0.35098779  0.86812145     0.36810
N2063       N  0.15838931  0.27510168  0.86209299    -0.43440
N2064       N  0.05325989  0.36207293  0.86601643    -0.43440
C2065       C  0.11983469  0.36571352  0.79138201     0.00150
C2066       C  0.10247873  0.37872578  0.80180730    -0.11730
C2067       C  0.10246780  0.38270954  0.82557309     0.02380
C2068       C  0.12049407  0.37386899  0.83936707     0.00060
C2069       C  0.13958024  0.36401373  0.82816334    -0.11670
C2070       C  0.13918267  0.35947892  0.80443436     0.02270
H2071       H  0.08763204  0.38374552  0.79166870     0.15250
H2072       H  0.15393029  0.35781667  0.83827706     0.15250
C2073       C  0.15759177  0.34629022  0.79433927     0.36900
C2074       C  0.08269940  0.39432819  0.83486860     0.36810
N2075       N  0.17231267  0.33567454  0.78620636    -0.43440
N2076       N  0.06639295  0.40395108  0.84096536    -0.43440
C2077       C  0.12041707  0.35685427  0.70411615     0.00150
C2078       C  0.12255510  0.38010668  0.69776928    -0.11730
C2079       C  0.12357087  0.38649208  0.67439744     0.02380
C2080       C  0.12103086  0.36961425  0.65712912     0.00060
C2081       C  0.12033621  0.34648419  0.66359904    -0.11670
C2082       C  0.12166451  0.33997284  0.68662137     0.02270
H2083       H  0.12223393  0.39333738  0.71088977     0.15250
H2084       H  0.11793654  0.33337508  0.65066196     0.15250
C2085       C  0.12366289  0.31574722  0.69179715     0.36900
C2086       C  0.12612783  0.41042048  0.66851746     0.36810
N2087       N  0.12530018  0.29636872  0.69595450    -0.43440
N2088       N  0.12826158  0.42959804  0.66371681    -0.43440
C2089       C  0.89005281  0.20589563  0.63172198     0.00150
C2090       C  0.89767513  0.19212665  0.64994838    -0.11730
C2091       C  0.89636975  0.16848386  0.64878260     0.02380
C2092       C  0.88172387  0.15779378  0.63256471     0.00060
C2093       C  0.87081392  0.17202347  0.61607498    -0.11670
C2094       C  0.87597562  0.19575386  0.61474346     0.02270
H2095       H  0.90764258  0.19968831  0.66383064     0.15250
H2096       H  0.85869614  0.16474895  0.60399698     0.15250
C2097       C  0.86721751  0.20902616  0.59572720     0.36900
C2098       C  0.91292859  0.15631368  0.66266163     0.36810
N2099       N  0.86022099  0.21968888  0.58044307    -0.43440
N2100       N  0.92718371  0.14802498  0.67380324    -0.43440
C2101       C  0.04285441  0.37140470  0.63403653     0.00150
C2102       C  0.05531630  0.35418301  0.62256036    -0.11730
C2103       C  0.07915892  0.35610824  0.61938452     0.02380
C2104       C  0.09092885  0.37562241  0.62777749     0.00060
C2105       C  0.07801262  0.39359651  0.63756306    -0.11670
C2106       C  0.05423028  0.39165621  0.64068949     0.02270
H2107       H  0.04664429  0.33845365  0.61756945     0.15250
H2108       H  0.08671438  0.40871939  0.64399016     0.15250
C2109       C  0.04223343  0.40968100  0.65280025     0.36900
C2110       C  0.09115726  0.33734969  0.60851349     0.36810
N2111       N  0.03257814  0.42407448  0.66255681    -0.43440
N2112       N  0.10033605  0.32223394  0.59942450    -0.43440
C2113       C  0.20530566  0.12662057  0.39152635     0.00150
C2114       C  0.19069472  0.11849789  0.40893305    -0.11730
C2115       C  0.16685035  0.11914040  0.40642709     0.02380
C2116       C  0.15703128  0.12542794  0.38508884     0.00060
C2117       C  0.17188416  0.13046560  0.36659603    -0.11670
C2118       C  0.19581921  0.13173000  0.36979026     0.02270
H2119       H  0.19787699  0.11469398  0.42576309     0.15250
H2120       H  0.16471602  0.13543487  0.35014464     0.15250
C2121       C  0.20983737  0.14072474  0.35138701     0.36900
C2122       C  0.15359116  0.11732962  0.42728300     0.36810
N2123       N  0.22104803  0.14804326  0.33665122    -0.43440
N2124       N  0.14423647  0.11656082  0.44483404    -0.43440
C2125       C  0.29301925  0.13434405  0.38618819     0.00150
C2126       C  0.30701564  0.15397539  0.38488651    -0.11730
C2127       C  0.33082987  0.15213368  0.38352845     0.02380
C2128       C  0.34116611  0.13032949  0.38085522     0.00060
C2129       C  0.32691105  0.11098986  0.37817861    -0.11670
C2130       C  0.30296621  0.11272446  0.38146344     0.02270
H2131       H  0.29947539  0.17080891  0.38767016     0.15250
H2132       H  0.33465455  0.09425705  0.37561044     0.15250
C2133       C  0.28944596  0.09197836  0.38199056     0.36900
C2134       C  0.34410374  0.17288252  0.38670420     0.36810
N2135       N  0.27859091  0.07532390  0.38238260    -0.43440
N2136       N  0.35443482  0.18970723  0.38910857    -0.43440
C2137       C  0.13905169  0.29321559  0.37683578     0.00150
C2138       C  0.11722056  0.30233141  0.38167466    -0.11730
C2139       C  0.11345640  0.32628319  0.38104551     0.02380
C2140       C  0.13199172  0.34143639  0.37666785     0.00060
C2141       C  0.15332172  0.33190153  0.37084148    -0.11670
C2142       C  0.15645882  0.30827249  0.36917265     0.02270
H2143       H  0.10361633  0.29098591  0.38745464     0.15250
H2144       H  0.16825693  0.34267483  0.36914382     0.15250
C2145       C  0.17862332  0.29985762  0.36167250     0.36900
C2146       C  0.09082269  0.33490101  0.38624313     0.36810
N2147       N  0.19634192  0.29311726  0.35565507    -0.43440
N2148       N  0.07257861  0.34168847  0.39031228    -0.43440
C2149       C  0.12787059  0.15738254  0.38335663     0.00150
C2150       C  0.12758978  0.16846614  0.40473691    -0.11730
C2151       C  0.12875238  0.19233839  0.40627830     0.02380
C2152       C  0.13244188  0.20564940  0.38621780     0.00060
C2153       C  0.13066321  0.19488507  0.36464124    -0.11670
C2154       C  0.12785762  0.17086484  0.36312501     0.02270
H2155       H  0.12764998  0.15839341  0.42042242     0.15250
H2156       H  0.13310499  0.20491037  0.34910187     0.15250
C2157       C  0.12623863  0.16028224  0.34074656     0.36900
C2158       C  0.12819813  0.20268406  0.42890818     0.36810
N2159       N  0.12482871  0.15172613  0.32282177    -0.43440
N2160       N  0.12781587  0.21096874  0.44701558    -0.43440
C2161       C  0.29250369  0.37139190  0.60981504     0.00150
C2162       C  0.30732804  0.37582177  0.59132108    -0.11730
C2163       C  0.33104101  0.37413067  0.59379217     0.02380
C2164       C  0.34080911  0.37152221  0.61594016     0.00060
C2165       C  0.32596063  0.37017884  0.63502798    -0.11670
C2166       C  0.30197743  0.36923638  0.63209318     0.02270
H2167       H  0.30022049  0.37778333  0.57414363     0.15250
H2168       H  0.33311266  0.36803070  0.65209684     0.15250
C2169       C  0.28786574  0.36380402  0.65177267     0.36900
C2170       C  0.34400614  0.37235590  0.57274064     0.36810
N2171       N  0.27658506  0.35932774  0.66755899    -0.43440
N2172       N  0.35323733  0.37093334  0.55515621    -0.43440
C2173       C  0.15771332  0.37433976  0.62593971     0.00150
C2174       C  0.17212494  0.39379066  0.62654499    -0.11730
C2175       C  0.19602266  0.39138963  0.62355472     0.02380
C2176       C  0.20560757  0.36923147  0.62147549     0.00060
C2177       C  0.19171907  0.35012288  0.62614714    -0.11670
C2178       C  0.16789535  0.35226148  0.62692199     0.02270
H2179       H  0.16448982  0.41076355  0.62575052     0.15250
H2180       H  0.19918824  0.33305133  0.62512881     0.15250
C2181       C  0.15489018  0.33137485  0.62396143     0.36900
C2182       C  0.20970227  0.41165341  0.61955759     0.36810
N2183       N  0.14544299  0.31407510  0.62135300    -0.43440
N2184       N  0.22070274  0.42790122  0.61633358    -0.43440
C2185       C  0.36527029  0.13880702  0.54436525     0.00150
C2186       C  0.38725980  0.13333849  0.55278294    -0.11730
C2187       C  0.39064554  0.12905073  0.57641864     0.02380
C2188       C  0.37211535  0.13149312  0.59187026     0.00060
C2189       C  0.34990277  0.13426617  0.58299502    -0.11670
C2190       C  0.34625727  0.13691188  0.55944304     0.02270
H2191       H  0.40190314  0.13377326  0.54125763     0.15250
H2192       H  0.33538156  0.13535677  0.59465119     0.15250
C2193       C  0.32284342  0.13884897  0.55132190     0.36900
C2194       C  0.41322771  0.12297395  0.58456448     0.36810
N2195       N  0.30410449  0.14039170  0.54482797    -0.43440
N2196       N  0.43127541  0.11780023  0.59112179    -0.43440
C2197       C  0.37238759  0.14220366  0.45704254     0.00150
C2198       C  0.36474727  0.12041074  0.45015828    -0.11730
C2199       C  0.36523711  0.11399223  0.42684951     0.02380
C2200       C  0.37327180  0.12960034  0.40999965     0.00060
C2201       C  0.38342813  0.15020076  0.41742055    -0.11670
C2202       C  0.38313614  0.15653081  0.44064936     0.02270
H2203       H  0.35682501  0.10909039  0.46268918     0.15250
H2204       H  0.38972613  0.16243996  0.40494250     0.15250
C2205       C  0.39258049  0.17857510  0.44706490     0.36900
C2206       C  0.35654067  0.09165216  0.42057616     0.36810
N2207       N  0.40010497  0.19624012  0.45223852    -0.43440
N2208       N  0.34967426  0.07362722  0.41574005    -0.43440
C2209       C  0.35688433  0.20634905  0.62503110     0.00150
C2210       C  0.37960316  0.20055702  0.61938635    -0.11730
C2211       C  0.38681136  0.17751188  0.61919799     0.02380
C2212       C  0.37111678  0.15973607  0.62448793     0.00060
C2213       C  0.34906145  0.16580683  0.63219394    -0.11670
C2214       C  0.34204896  0.18879860  0.63299316     0.02270
H2215       H  0.39128376  0.21383999  0.61351176     0.15250
H2216       H  0.33659968  0.15252611  0.63591689     0.15250
C2217       C  0.31903049  0.19383778  0.64084995     0.36900
C2218       C  0.41016169  0.17260977  0.61257705     0.36810
N2219       N  0.30058693  0.19788800  0.64710369    -0.43440
N2220       N  0.42906965  0.16918969  0.60746233    -0.43440
C2221       C  0.36253389  0.29349096  0.61752972     0.00150
C2222       C  0.36408195  0.30453168  0.63897703    -0.11730
C2223       C  0.36878081  0.32826771  0.64027350     0.02380
C2224       C  0.37149149  0.34128790  0.61990972     0.00060
C2225       C  0.37272358  0.32955952  0.59887479    -0.11670
C2226       C  0.36860164  0.30593678  0.59753525     0.02270
H2227       H  0.35987047  0.29509286  0.65450606     0.15250
H2228       H  0.37487430  0.33907047  0.58309256     0.15250
C2229       C  0.36872078  0.29520927  0.57508743     0.36900
C2230       C  0.36917620  0.33925035  0.66251666     0.36810
N2231       N  0.36871371  0.28663721  0.55711052    -0.43440
N2232       N  0.36961293  0.34812658  0.68033503    -0.43440
C2233       C  0.13287756  0.36687851  0.54233158     0.00150
C2234       C  0.11236294  0.37371464  0.55291913    -0.11730
C2235       C  0.11216419  0.38098096  0.57616730     0.02380
C2236       C  0.13223995  0.37826876  0.59011249     0.00060
C2237       C  0.15303370  0.37493913  0.57767273    -0.11670
C2238       C  0.15351686  0.36994052  0.55434009     0.02270
H2239       H  0.09659384  0.37368391  0.54297170     0.15250
H2240       H  0.16962149  0.37529339  0.58584448     0.15250
C2241       C  0.17562024  0.36692058  0.54327967     0.36900
C2242       C  0.09284637  0.39486416  0.58285997     0.36810
N2243       N  0.19326967  0.36457483  0.53440615    -0.43440
N2244       N  0.07721634  0.40644339  0.58701455    -0.43440
C2245       C  0.13361525  0.36478722  0.45542886     0.00150
C2246       C  0.15413572  0.36630698  0.44284189    -0.11730
C2247       C  0.15392944  0.36968881  0.41903013     0.02380
C2248       C  0.13280194  0.37219310  0.40729703     0.00060
C2249       C  0.11255838  0.37415453  0.42039810    -0.11670
C2250       C  0.11277848  0.37024539  0.44432738     0.02270
H2251       H  0.17034502  0.36281647  0.45140451     0.15250
H2252       H  0.09630243  0.37673022  0.41169000     0.15250
C2253       C  0.09129323  0.36986411  0.45668346     0.36900
C2254       C  0.17566141  0.36853803  0.40717230     0.36810
N2255       N  0.07407969  0.36961964  0.46665451    -0.43440
N2256       N  0.19351195  0.36729101  0.39848231    -0.43440
C2257       C  0.38162280  0.29464907  0.13338720     0.00150
C2258       C  0.38240621  0.30350704  0.11094426    -0.11730
C2259       C  0.37947293  0.32714929  0.10696821     0.02380
C2260       C  0.37602681  0.34224141  0.12567334     0.00060
C2261       C  0.37258633  0.33287127  0.14767824    -0.11670
C2262       C  0.37506919  0.30931068  0.15160755     0.02270
H2263       H  0.38696242  0.29227879  0.09676483     0.15250
H2264       H  0.36982279  0.34413990  0.16223925     0.15250
C2265       C  0.37237889  0.30076942  0.17481498     0.36900
C2266       C  0.38081384  0.33550322  0.08366912     0.36810
N2267       N  0.37023296  0.29390511  0.19339222    -0.43440
N2268       N  0.38154884  0.34172469  0.06476624    -0.43440
C2269       C  0.38581090  0.20768907  0.12709481     0.00150
C2270       C  0.40170651  0.19447763  0.11477831    -0.11730
C2271       C  0.40030179  0.17049513  0.11446199     0.02380
C2272       C  0.38188783  0.15930855  0.12588614     0.00060
C2273       C  0.36417705  0.17295729  0.13520077    -0.11670
C2274       C  0.36620409  0.19693937  0.13629121     0.02270
H2275       H  0.41687105  0.20281620  0.10778356     0.15250
H2276       H  0.34982746  0.16472347  0.14379542     0.15250
C2277       C  0.34944485  0.20979654  0.14930740     0.36900
C2278       C  0.41995056  0.15857975  0.10524917     0.36810
N2279       N  0.33606301  0.22010385  0.15981746    -0.43440
N2280       N  0.43654527  0.15035415  0.09798288    -0.43440
C2281       C  0.54140763  0.36741131  0.13069253     0.00150
C2282       C  0.55398845  0.34721138  0.12670924    -0.11730
C2283       C  0.57792656  0.34745342  0.12611350     0.02380
C2284       C  0.58984994  0.36857699  0.12654481     0.00060
C2285       C  0.57698320  0.38910404  0.12646316    -0.11670
C2286       C  0.55290547  0.38866386  0.12921974     0.02270
H2287       H  0.54520183  0.33076314  0.12746475     0.15250
H2288       H  0.58589589  0.40545792  0.12635510     0.15250
C2289       C  0.54072275  0.40996326  0.13255825     0.36900
C2290       C  0.58936863  0.32554214  0.12770470     0.36810
N2291       N  0.53088921  0.42703826  0.13520042    -0.43440
N2292       N  0.59765626  0.30751197  0.12892501    -0.43440
C2293       C  0.45353272  0.37313453  0.13946259     0.00150
C2294       C  0.44627639  0.37521798  0.11644217    -0.11730
C2295       C  0.42263490  0.37621437  0.11107464     0.02380
C2296       C  0.40614767  0.37309076  0.12865353     0.00060
C2297       C  0.41364451  0.37268228  0.15149512    -0.11670
C2298       C  0.43674691  0.37483640  0.15702281     0.02270
H2299       H  0.45884154  0.37503539  0.10267590     0.15250
H2300       H  0.40159253  0.36968445  0.16522528     0.15250
C2301       C  0.44275691  0.37745412  0.18106182     0.36900
C2302       C  0.41576675  0.38026617  0.08760872     0.36810
N2303       N  0.44753183  0.37951017  0.20029359    -0.43440
N2304       N  0.41044039  0.38413317  0.06881283    -0.43440
C2305       C  0.61395428  0.15778077  0.37080286     0.00150
C2306       C  0.59355799  0.16778259  0.36224008    -0.11730
C2307       C  0.58877883  0.19079513  0.36455471     0.02380
C2308       C  0.60687704  0.20647197  0.36780334     0.00060
C2309       C  0.62803436  0.19764520  0.37546991    -0.11670
C2310       C  0.63105144  0.17360513  0.37884686     0.02270
H2311       H  0.57993004  0.15765611  0.35484771     0.15250
H2312       H  0.64190056  0.20944366  0.37941202     0.15250
C2313       C  0.65075031  0.16689759  0.39216136     0.36900
C2314       C  0.56484938  0.19769118  0.36335487     0.36810
N2315       N  0.66673785  0.16278522  0.40326997    -0.43440
N2316       N  0.54569562  0.20298010  0.36253395    -0.43440
C2317       C  0.61135198  0.29459420  0.37342932     0.00150
C2318       C  0.59599748  0.30881711  0.38541667    -0.11730
C2319       C  0.59856663  0.33279310  0.38529823     0.02380
C2320       C  0.61712081  0.34289928  0.37310243     0.00060
C2321       C  0.63394398  0.32831272  0.36365948    -0.11670
C2322       C  0.63113856  0.30442535  0.36356625     0.02270
H2323       H  0.58058932  0.30131261  0.39278312     0.15250
H2324       H  0.64842513  0.33573304  0.35454949     0.15250
C2325       C  0.64724673  0.29062948  0.35066738     0.36900
C2326       C  0.58047828  0.34613233  0.39574566     0.36810
N2327       N  0.66007998  0.27958403  0.34022465    -0.43440
N2328       N  0.56554334  0.35619737  0.40420065    -0.43440
C2329       C  0.45458171  0.13778532  0.36655399     0.00150
C2330       C  0.44630562  0.11593517  0.37282829    -0.11730
C2331       C  0.42259172  0.11228707  0.37625500     0.02380
C2332       C  0.40692866  0.13025266  0.37186242     0.00060
C2333       C  0.41546059  0.15243431  0.36815608    -0.11670
C2334       C  0.43901259  0.15650825  0.36672878     0.02270
H2335       H  0.45807432  0.10154229  0.37385543     0.15250
H2336       H  0.40357062  0.16658922  0.36573163     0.15250
C2337       C  0.44668691  0.18004400  0.36453346     0.36900
C2338       C  0.41464702  0.09004496  0.38370775     0.36810
N2339       N  0.45283135  0.19887538  0.36276392    -0.43440
N2340       N  0.40823614  0.07229240  0.38997561    -0.43440
C2341       C  0.54161906  0.12574041  0.36403996     0.00150
C2342       C  0.55028890  0.13090304  0.38603046    -0.11730
C2343       C  0.57392877  0.12829926  0.39088264     0.02380
C2344       C  0.58932531  0.12136868  0.37326813     0.00060
C2345       C  0.57970053  0.11294219  0.35268786    -0.11670
C2346       C  0.55616644  0.11455835  0.34821057     0.02270
H2347       H  0.53918032  0.13907161  0.39857626     0.15250
H2348       H  0.59052500  0.10847314  0.33849565     0.15250
C2349       C  0.54778221  0.10704638  0.32601743     0.36900
C2350       C  0.58262710  0.13639889  0.41266771     0.36810
N2351       N  0.54105127  0.10108167  0.30824907    -0.43440
N2352       N  0.58973670  0.14296427  0.43006649    -0.43440
C2353       C  0.37519721  0.14019791  0.29548005     0.00150
C2354       C  0.38257229  0.11840577  0.30261265    -0.11730
C2355       C  0.38230035  0.11236387  0.32606035     0.02380
C2356       C  0.37497195  0.12845353  0.34280775     0.00060
C2357       C  0.36558132  0.14930392  0.33516213    -0.11670
C2358       C  0.36502554  0.15497451  0.31181976     0.02270
H2359       H  0.39015446  0.10678641  0.29015196     0.15250
H2360       H  0.36050555  0.16218976  0.34741613     0.15250
C2361       C  0.35560975  0.17698610  0.30519917     0.36900
C2362       C  0.39053620  0.08990045  0.33240936     0.36810
N2363       N  0.34808677  0.19460359  0.29986394    -0.43440
N2364       N  0.39697909  0.07163512  0.33689325    -0.43440
C2365       C  0.38493517  0.13188552  0.15938331     0.00150
C2366       C  0.36510403  0.12727825  0.17258080    -0.11730
C2367       C  0.36486196  0.13122038  0.19660569     0.02380
C2368       C  0.38511449  0.13853553  0.20783661     0.00060
C2369       C  0.40548991  0.13964926  0.19496882    -0.11670
C2370       C  0.40524610  0.13830492  0.17107287     0.02270
H2371       H  0.34926643  0.12278064  0.16384242     0.15250
H2372       H  0.42137125  0.14458893  0.20345137     0.15250
C2373       C  0.42564188  0.14630066  0.15945622     0.36900
C2374       C  0.34338477  0.12953560  0.20885115     0.36810
N2375       N  0.44249144  0.15306936  0.15132329    -0.43440
N2376       N  0.32614100  0.12816934  0.21868194    -0.43440
C2377       C  0.61290845  0.36456552  0.29178263     0.00150
C2378       C  0.59304174  0.36359103  0.30539256    -0.11730
C2379       C  0.59419491  0.36523932  0.32922510     0.02380
C2380       C  0.61520836  0.37080347  0.34009430     0.00060
C2381       C  0.63466709  0.37483724  0.32625836    -0.11670
C2382       C  0.63377436  0.37132656  0.30222403     0.02270
H2383       H  0.57673107  0.35911923  0.29749025     0.15250
H2384       H  0.65096019  0.37873672  0.33442082     0.15250
C2385       C  0.65472869  0.37289750  0.28908382     0.36900
C2386       C  0.57354643  0.35959996  0.34181585     0.36810
N2387       N  0.67152821  0.37420498  0.27850274    -0.43440
N2388       N  0.55642981  0.35511759  0.35091454    -0.43440
C2389       C  0.62205994  0.36945208  0.15596964     0.00150
C2390       C  0.61326306  0.38699429  0.17021588    -0.11730
C2391       C  0.61240319  0.38433595  0.19421648     0.02380
C2392       C  0.62191196  0.36456907  0.20436253     0.00060
C2393       C  0.63396379  0.34902759  0.19052911    -0.11670
C2394       C  0.63299411  0.35044044  0.16659153     0.02270
H2395       H  0.60509400  0.40184445  0.16253897     0.15250
H2396       H  0.64108624  0.33367460  0.19842164     0.15250
C2397       C  0.64003508  0.33008100  0.15440062     0.36900
C2398       C  0.59939600  0.40061789  0.20767355     0.36810
N2399       N  0.64569736  0.31289362  0.14614074    -0.43440
N2400       N  0.58884486  0.41360478  0.21843378    -0.43440
C2401       C  0.70522019  0.11502097  0.36677450     0.00150
C2402       C  0.69308410  0.12635982  0.34912763    -0.11730
C2403       C  0.66926563  0.13049826  0.35098324     0.02380
C2404       C  0.65702479  0.12238374  0.37035492     0.00060
C2405       C  0.66973823  0.11320224  0.38885103    -0.11670
C2406       C  0.69352675  0.10968359  0.38728886     0.02270
H2407       H  0.70199722  0.13088662  0.33336966     0.15250
H2408       H  0.66080162  0.10746388  0.40416452     0.15250
C2409       C  0.70522187  0.09867561  0.40621187     0.36900
C2410       C  0.65777092  0.14261442  0.33266126     0.36810
N2411       N  0.71463685  0.08990548  0.42139660    -0.43440
N2412       N  0.64874971  0.15269911  0.31805912    -0.43440
C2413       C  0.79285278  0.11017556  0.37247425     0.00150
C2414       C  0.80760041  0.09511658  0.38433153    -0.11730
C2415       C  0.83149872  0.09864714  0.38474700     0.02380
C2416       C  0.84110261  0.11793459  0.37337870     0.00060
C2417       C  0.82592639  0.13427223  0.36388732    -0.11670
C2418       C  0.80215561  0.13038629  0.36295259     0.02270
H2419       H  0.80058008  0.07943704  0.39159016     0.15250
H2420       H  0.83287338  0.14927829  0.35529765     0.15250
C2421       C  0.78813916  0.14594046  0.34962690     0.36900
C2422       C  0.84550504  0.08102531  0.39512540     0.36810
N2423       N  0.77693945  0.15828744  0.33876851    -0.43440
N2424       N  0.85634243  0.06663755  0.40356720    -0.43440
C2425       C  0.63262291  0.88548297  0.20412039     0.00150
C2426       C  0.62969580  0.86331323  0.19502393    -0.11730
C2427       C  0.62606744  0.86016619  0.17125839     0.02380
C2428       C  0.62614334  0.87930184  0.15634439     0.00060
C2429       C  0.62600655  0.90137902  0.16600062    -0.11670
C2430       C  0.62874631  0.90460023  0.18964659     0.02270
H2431       H  0.63182475  0.84848398  0.20611587     0.15250
H2432       H  0.62560599  0.91629637  0.15495896     0.15250
C2433       C  0.62922710  0.92783216  0.19844038     0.36900
C2434       C  0.62297173  0.83723090  0.16246902     0.36810
N2435       N  0.62964207  0.94642602  0.20548586    -0.43440
N2436       N  0.62000730  0.81881856  0.15557276    -0.43440
C2437       C  0.62891868  0.04346319  0.35864518     0.00150
C2438       C  0.62521591  0.05868995  0.34025379    -0.11730
C2439       C  0.62673716  0.08230462  0.34331520     0.02380
C2440       C  0.62783635  0.09153154  0.36575854     0.00060
C2441       C  0.62802880  0.07634035  0.38462541    -0.11670
C2442       C  0.62961058  0.05244723  0.38122807     0.02270
H2443       H  0.62394019  0.05203048  0.32283949     0.15250
H2444       H  0.62879242  0.08320203  0.40194723     0.15250
C2445       C  0.63411226  0.03800173  0.40088222     0.36900
C2446       C  0.62829378  0.09622200  0.32277976     0.36810
N2447       N  0.63785477  0.02649798  0.41669391    -0.43440
N2448       N  0.62904582  0.10659032  0.30579775    -0.43440
C2449       C  0.70430390  0.89289873  0.12522213     0.00150
C2450       C  0.69739448  0.86976918  0.12639397    -0.11730
C2451       C  0.67386180  0.86390995  0.12603229     0.02380
C2452       C  0.65702118  0.88140838  0.12612474     0.00060
C2453       C  0.66422472  0.90425846  0.12397567    -0.11670
C2454       C  0.68728752  0.90982258  0.12136269     0.02270
H2455       H  0.71017527  0.85643363  0.12875946     0.15250
H2456       H  0.65188488  0.91810050  0.12499239     0.15250
C2457       C  0.69306656  0.93342093  0.11605174     0.36900
C2458       C  0.66751795  0.83999590  0.12621443     0.36810
N2459       N  0.69768529  0.95229333  0.11180586    -0.43440
N2460       N  0.66277282  0.82069456  0.12592694    -0.43440
C2461       C  0.79209625  0.88618602  0.13287139     0.00150
C2462       C  0.80398958  0.88334221  0.15372714    -0.11730
C2463       C  0.82788918  0.88200852  0.15425476     0.02380
C2464       C  0.84041787  0.88077689  0.13349498     0.00060
C2465       C  0.82822006  0.87996480  0.11254509    -0.11670
C2466       C  0.80421175  0.88326318  0.11206374     0.02270
H2467       H  0.79475165  0.88524571  0.16985854     0.15250
H2468       H  0.83765643  0.87886298  0.09649072     0.15250
C2469       C  0.79278848  0.88569734  0.09017930     0.36900
C2470       C  0.83893415  0.88393595  0.17642399     0.36810
N2471       N  0.78358267  0.88764241  0.07263044    -0.43440
N2472       N  0.84718082  0.88522548  0.19450112    -0.43440
C2473       C  0.87251583  0.95835806  0.13741703     0.00150
C2474       C  0.88371917  0.94472838  0.15376535    -0.11730
C2475       C  0.88331574  0.92073395  0.15244801     0.02380
C2476       C  0.87298500  0.90967918  0.13328138     0.00060
C2477       C  0.86470682  0.92372492  0.11526472    -0.11670
C2478       C  0.86386357  0.94778866  0.11743021     0.02270
H2479       H  0.89026022  0.95287016  0.16926393     0.15250
H2480       H  0.85700682  0.91583384  0.10024923     0.15250
C2481       C  0.85187012  0.96097623  0.10017122     0.36900
C2482       C  0.89082020  0.90898280  0.17286751     0.36810
N2483       N  0.84217511  0.97155888  0.08638421    -0.43440
N2484       N  0.89695552  0.90165098  0.19032536    -0.43440
C2485       C  0.87285403  0.09385873  0.12754090     0.00150
C2486       C  0.85112278  0.08377873  0.12464735    -0.11730
C2487       C  0.84797344  0.06008282  0.12714605     0.02380
C2488       C  0.86666680  0.04592114  0.13342155     0.00060
C2489       C  0.88879622  0.05551277  0.13390098    -0.11670
C2490       C  0.89201368  0.07929916  0.13074362     0.02270
H2491       H  0.83619240  0.09458705  0.12213314     0.15250
H2492       H  0.90334644  0.04473558  0.13829734     0.15250
C2493       C  0.91502802  0.08836646  0.13153428     0.36900
C2494       C  0.82504235  0.05084887  0.12477433     0.36810
N2495       N  0.93368510  0.09523146  0.13179881    -0.43440
N2496       N  0.80669894  0.04340313  0.12287728    -0.43440
C2497       C  0.86207545  0.11829711  0.29231984     0.00150
C2498       C  0.86374257  0.09773271  0.30486895    -0.11730
C2499       C  0.86546546  0.09785874  0.32873539     0.02380
C2500       C  0.86919781  0.11869586  0.34057434     0.00060
C2501       C  0.87103357  0.13914889  0.32769591    -0.11670
C2502       C  0.86689094  0.13916360  0.30371835     0.02270
H2503       H  0.86063921  0.08147976  0.29623003     0.15250
H2504       H  0.87348821  0.15530480  0.33664579     0.15250
C2505       C  0.86570277  0.16077508  0.29167552     0.36900
C2506       C  0.86168141  0.07631578  0.34053314     0.36810
N2507       N  0.86477262  0.17811826  0.28198017    -0.43440
N2508       N  0.85873537  0.05868386  0.34925826    -0.43440
C2509       C  0.86831638  0.12523936  0.15705056     0.00150
C2510       C  0.84522168  0.12555522  0.16364189    -0.11730
C2511       C  0.83883129  0.12744603  0.18661807     0.02380
C2512       C  0.85563889  0.12524977  0.20411847     0.00060
C2513       C  0.87892274  0.12680804  0.19774825    -0.11670
C2514       C  0.88524917  0.12774500  0.17430041     0.02270
H2515       H  0.83193043  0.12324379  0.15097348     0.15250
H2516       H  0.89215498  0.12627294  0.21085967     0.15250
C2517       C  0.90901954  0.13132183  0.16841764     0.36900
C2518       C  0.81466697  0.13040412  0.19172562     0.36810
N2519       N  0.92806704  0.13486964  0.16394061    -0.43440
N2520       N  0.79533346  0.13270252  0.19579638    -0.43440
C2521       C  0.45479194  0.87543291  0.10922900     0.00150
C2522       C  0.44671798  0.87868665  0.13178318    -0.11730
C2523       C  0.42293875  0.87875443  0.13646169     0.02380
C2524       C  0.40695993  0.87670422  0.11822643     0.00060
C2525       C  0.41534442  0.87178568  0.09618147    -0.11670
C2526       C  0.43878509  0.86961577  0.09189968     0.02270
H2527       H  0.45879606  0.88278646  0.14538665     0.15250
H2528       H  0.40379390  0.87135728  0.08175886     0.15250
C2529       C  0.44605816  0.86373199  0.06882614     0.36900
C2530       C  0.41548578  0.88173800  0.15991389     0.36810
N2531       N  0.45189303  0.85908116  0.05035805    -0.43440
N2532       N  0.40994859  0.88374182  0.17893840    -0.43440
C2533       C  0.54257551  0.88362723  0.11501882     0.00150
C2534       C  0.55647610  0.90292722  0.11926135    -0.11730
C2535       C  0.58034591  0.90099003  0.12084939     0.02380
C2536       C  0.59083411  0.87913494  0.11975602     0.00060
C2537       C  0.57666267  0.85956323  0.11915700    -0.11670
C2538       C  0.55269891  0.86162621  0.11632710     0.02270
H2539       H  0.54882862  0.91993430  0.11892368     0.15250
H2540       H  0.58444291  0.84267632  0.11912944     0.15250
C2541       C  0.53930542  0.84110141  0.11270765     0.36900
C2542       C  0.59353670  0.92198637  0.12137061     0.36810
N2543       N  0.52854620  0.82462814  0.10983870    -0.43440
N2544       N  0.60364709  0.93911304  0.12165558    -0.43440
C2545       C  0.37736359  0.90829051  0.11868219     0.00150
C2546       C  0.38067248  0.91829745  0.09702804    -0.11730
C2547       C  0.38225940  0.94203155  0.09440544     0.02380
C2548       C  0.38333193  0.95635633  0.11407518     0.00060
C2549       C  0.37788793  0.94672159  0.13562823    -0.11670
C2550       C  0.37424485  0.92283433  0.13788385     0.02270
H2551       H  0.38307644  0.90743193  0.08209555     0.15250
H2552       H  0.37771915  0.95754263  0.15081050     0.15250
C2553       C  0.36795531  0.91358724  0.16001099     0.36900
C2554       C  0.38390864  0.95114379  0.07129394     0.36810
N2555       N  0.36249814  0.90625146  0.17770406    -0.43440
N2556       N  0.38522512  0.95842391  0.05279718    -0.43440
C2557       C  0.38593118  0.04354563  0.12700942     0.00150
C2558       C  0.40264709  0.05758652  0.13723279    -0.11730
C2559       C  0.40122099  0.08151259  0.13585919     0.02380
C2560       C  0.38114168  0.09201066  0.12704531     0.00060
C2561       C  0.36277591  0.07772104  0.12027318    -0.11670
C2562       C  0.36527547  0.05369690  0.11949270     0.02270
H2563       H  0.41874328  0.04984302  0.14265495     0.15250
H2564       H  0.34736393  0.08541438  0.11319289     0.15250
C2565       C  0.34774481  0.04022643  0.10825096     0.36900
C2566       C  0.42244850  0.09381194  0.13904994     0.36810
N2567       N  0.33374674  0.02944862  0.09910791    -0.43440
N2568       N  0.44036382  0.10218977  0.14099795    -0.43440
C2569       C  0.45460083  0.11606727  0.88797884     0.00150
C2570       C  0.44262028  0.09508787  0.88863301    -0.11730
C2571       C  0.41874491  0.09436882  0.88765324     0.02380
C2572       C  0.40620603  0.11423382  0.88172957     0.00060
C2573       C  0.41839214  0.13480879  0.87773184    -0.11670
C2574       C  0.44236876  0.13603800  0.88158430     0.02270
H2575       H  0.45178328  0.07942884  0.89298606     0.15250
H2576       H  0.40890477  0.15033509  0.87374117     0.15250
C2577       C  0.45352337  0.15813778  0.88092011     0.36900
C2578       C  0.40775499  0.07332306  0.89491931     0.36810
N2579       N  0.46247852  0.17588459  0.88045881    -0.43440
N2580       N  0.39972191  0.05610655  0.90080130    -0.43440
C2581       C  0.59075224  0.12712516  0.88419586     0.00150
C2582       C  0.57557169  0.12050224  0.86644484    -0.11730
C2583       C  0.55159140  0.12087076  0.86958535     0.02380
C2584       C  0.54231050  0.12878533  0.89052535     0.00060
C2585       C  0.55726400  0.13868473  0.90668602    -0.11670
C2586       C  0.58116246  0.13726810  0.90417968     0.02270
H2587       H  0.58244004  0.11323789  0.85072603     0.15250
H2588       H  0.55022143  0.14488698  0.92284464     0.15250
C2589       C  0.59459909  0.14381864  0.92391711     0.36900
C2590       C  0.53710820  0.11088286  0.85210021     0.36810
N2591       N  0.60395172  0.14922825  0.94063207    -0.43440
N2592       N  0.52548544  0.10290052  0.83805591    -0.43440
C2593       C  0.38384612  0.11347319  0.04520040     0.00150
C2594       C  0.36288219  0.11924486  0.05583016    -0.11730
C2595       C  0.36177231  0.12277288  0.07988554     0.02380
C2596       C  0.38155575  0.11933322  0.09356388     0.00060
C2597       C  0.40239475  0.11450339  0.08267780    -0.11670
C2598       C  0.40404371  0.11344591  0.05881991     0.02270
H2599       H  0.34727040  0.11969202  0.04566652     0.15250
H2600       H  0.41753548  0.11111076  0.09297791     0.15250
C2601       C  0.42670670  0.11114207  0.04881904     0.36900
C2602       C  0.34001645  0.12830828  0.09037272     0.36810
N2603       N  0.44483718  0.10928771  0.04083768    -0.43440
N2604       N  0.32261961  0.13282949  0.09888968    -0.43440
C2605       C  0.37122034  0.11252863  0.95765132     0.00150
C2606       C  0.35911030  0.09675857  0.94406501    -0.11730
C2607       C  0.36024988  0.09747074  0.91999518     0.02380
C2608       C  0.37223016  0.11558644  0.90886394     0.00060
C2609       C  0.38099910  0.13346591  0.92275470    -0.11670
C2610       C  0.38108036  0.13181157  0.94689919     0.02270
H2611       H  0.35165316  0.08177614  0.95234720     0.15250
H2612       H  0.38988292  0.14773295  0.91471572     0.15250
C2613       C  0.39368359  0.14863639  0.96005973     0.36900
C2614       C  0.35208633  0.07724283  0.90835055     0.36810
N2615       N  0.40382330  0.16210610  0.97061807    -0.43440
N2616       N  0.34551040  0.06005816  0.90082193    -0.43440
C2617       C  0.61384957  0.88973331  0.95466985     0.00150
C2618       C  0.59331011  0.88848344  0.94209188    -0.11730
C2619       C  0.59340777  0.88706511  0.91816434     0.02380
C2620       C  0.61425150  0.88331510  0.90624302     0.00060
C2621       C  0.63460213  0.88103249  0.91919817    -0.11670
C2622       C  0.63470772  0.88516276  0.94314374     0.02270
H2623       H  0.57710140  0.89159930  0.95081823     0.15250
H2624       H  0.65072679  0.87816957  0.91032584     0.15250
C2625       C  0.65645141  0.88695895  0.95490623     0.36900
C2626       C  0.57216326  0.89279988  0.90679819     0.36810
N2627       N  0.67390710  0.88858812  0.96430677    -0.43440
N2628       N  0.55477065  0.89828766  0.89885590    -0.43440
C2629       C  0.62452519  0.89064681  0.04212465     0.00150
C2630       C  0.61809997  0.86848570  0.04921069    -0.11730
C2631       C  0.61748216  0.86277768  0.07278048     0.02380
C2632       C  0.62224385  0.87974948  0.08955493     0.00060
C2633       C  0.63010950  0.90124808  0.08202298    -0.11670
C2634       C  0.63275157  0.90622623  0.05876534     0.02270
H2635       H  0.61196868  0.85623919  0.03656008     0.15250
H2636       H  0.63262755  0.91502009  0.09404232     0.15250
C2637       C  0.64159132  0.92857429  0.05238328     0.36900
C2638       C  0.61100126  0.83976683  0.07924406     0.36810
N2639       N  0.64865241  0.94645429  0.04728396    -0.43440
N2640       N  0.60596988  0.82117632  0.08420005    -0.43440
C2641       C  0.61808834  0.09329625  0.88268618     0.00150
C2642       C  0.61652127  0.08126163  0.86169796    -0.11730
C2643       C  0.61214075  0.05743127  0.86133928     0.02380
C2644       C  0.61050555  0.04517865  0.88223244     0.00060
C2645       C  0.61517322  0.05682134  0.90289147    -0.11670
C2646       C  0.61776298  0.08063504  0.90342347     0.02270
H2647       H  0.61674087  0.09077652  0.84565543     0.15250
H2648       H  0.61425990  0.04751056  0.91906480     0.15250
C2649       C  0.61837025  0.09151951  0.92574531     0.36900
C2650       C  0.60716620  0.04647422  0.83964290     0.36810
N2651       N  0.61917156  0.09956442  0.94394134    -0.43440
N2652       N  0.60308443  0.03768483  0.82224957    -0.43440
C2653       C  0.60477925  0.95811811  0.87085657     0.00150
C2654       C  0.62691286  0.95038546  0.87655854    -0.11730
C2655       C  0.63192822  0.92673486  0.87699919     0.02380
C2656       C  0.61450488  0.91051902  0.87215622     0.00060
C2657       C  0.59344347  0.91854938  0.86362631    -0.11670
C2658       C  0.58862373  0.94202619  0.86251392     0.02270
H2659       H  0.63963949  0.96258842  0.88258847     0.15250
H2660       H  0.57973993  0.90658408  0.86005650     0.15250
C2661       C  0.56598825  0.94907125  0.85508735     0.36900
C2662       C  0.65475804  0.91951350  0.88334343     0.36810
N2663       N  0.54781643  0.95468010  0.84926803    -0.43440
N2664       N  0.67320179  0.91386523  0.88817887    -0.43440
C2665       C  0.84010320  0.37345249  0.11415960     0.00150
C2666       C  0.82500391  0.37037969  0.13292107    -0.11730
C2667       C  0.80102128  0.36910412  0.12950474     0.02380
C2668       C  0.79182386  0.37331268  0.10741787     0.00060
C2669       C  0.80682816  0.38019778  0.08985365    -0.11670
C2670       C  0.83041471  0.37741633  0.09219990     0.02270
H2671       H  0.83194564  0.36685817  0.14983260     0.15250
H2672       H  0.79993010  0.38355174  0.07279832     0.15250
C2673       C  0.84288134  0.37428604  0.07099206     0.36900
C2674       C  0.78668726  0.36126012  0.14817070     0.36810
N2675       N  0.85140881  0.37141697  0.05323885    -0.43440
N2676       N  0.77524170  0.35482056  0.16313533    -0.43440
C2677       C  0.70410390  0.36387454  0.11062407     0.00150
C2678       C  0.69429784  0.38485020  0.11759998    -0.11730
C2679       C  0.67039906  0.38651923  0.12157434     0.02380
C2680       C  0.65608656  0.36741290  0.11714360     0.00060
C2681       C  0.66635768  0.34633810  0.11180605    -0.11670
C2682       C  0.69004501  0.34407305  0.11024159     0.02270
H2683       H  0.70495189  0.40008935  0.11863415     0.15250
H2684       H  0.65576484  0.33152236  0.10811114     0.15250
C2685       C  0.69937182  0.32129632  0.10668709     0.36900
C2686       C  0.66082266  0.40813595  0.12892462     0.36810
N2687       N  0.70679541  0.30307069  0.10383442    -0.43440
N2688       N  0.65313586  0.42540631  0.13509045    -0.43440
C2689       C  0.79403079  0.13547103  0.88402134     0.00150
C2690       C  0.80399806  0.11377080  0.88053700    -0.11730
C2691       C  0.82793481  0.11156980  0.87742013     0.02380
C2692       C  0.84225097  0.13113090  0.87895394     0.00060
C2693       C  0.83193046  0.15283642  0.88009122    -0.11670
C2694       C  0.80809748  0.15518047  0.88160440     0.02270
H2695       H  0.79337319  0.09850965  0.88163678     0.15250
H2696       H  0.84251489  0.16805358  0.88108141     0.15250
C2697       C  0.79855883  0.17811499  0.88208987     0.36900
C2698       C  0.83742328  0.08908722  0.87329422     0.36810
N2699       N  0.79090767  0.19646404  0.88246695    -0.43440
N2700       N  0.84480311  0.07100920  0.86956383    -0.43440
C2701       C  0.70659149  0.12516330  0.88712835     0.00150
C2702       C  0.69722615  0.13515623  0.86729128    -0.11730
C2703       C  0.67334725  0.13505925  0.86357731     0.02380
C2704       C  0.65836058  0.12522923  0.88012184     0.00060
C2705       C  0.66822461  0.11249074  0.89813416    -0.11670
C2706       C  0.69203623  0.11233391  0.90169882     0.02270
H2707       H  0.70828531  0.14483165  0.85580404     0.15250
H2708       H  0.65746516  0.10497101  0.91114944     0.15250
C2709       C  0.70096823  0.10094741  0.92190704     0.36900
C2710       C  0.66456544  0.14647228  0.84336729     0.36810
N2711       N  0.70815458  0.09188081  0.93810980    -0.43440
N2712       N  0.65766963  0.15558415  0.82706273    -0.43440
C2713       C  0.87350151  0.14426604  0.95512678     0.00150
C2714       C  0.87245929  0.12122652  0.94801415    -0.11730
C2715       C  0.87333160  0.11550865  0.92449670     0.02380
C2716       C  0.87469893  0.13302915  0.90774816     0.00060
C2717       C  0.87840491  0.15567966  0.91506911    -0.11670
C2718       C  0.87835322  0.16133388  0.93845209     0.02270
H2719       H  0.86943842  0.10783928  0.96063888     0.15250
H2720       H  0.87975407  0.16931022  0.90245608     0.15250
C2721       C  0.88198035  0.18506976  0.94480823     0.36900
C2722       C  0.87256940  0.09162830  0.91807495     0.36810
N2723       N  0.88478844  0.20408568  0.94990593    -0.43440
N2724       N  0.87247145  0.07230565  0.91341072    -0.43440
C2725       C  0.86954075  0.13530834  0.04253878     0.00150
C2726       C  0.89088069  0.13937876  0.05300633    -0.11730
C2727       C  0.89369029  0.13616125  0.07685388     0.02380
C2728       C  0.87481381  0.12933258  0.09055479     0.00060
C2729       C  0.85458696  0.12231601  0.07946665    -0.11670
C2730       C  0.85187813  0.12507038  0.05569802     0.02270
H2731       H  0.90473116  0.14680227  0.04297403     0.15250
H2732       H  0.84006209  0.11659067  0.08951382     0.15250
C2733       C  0.83000116  0.11923811  0.04548791     0.36900
C2734       C  0.91575984  0.14094127  0.08705528     0.36810
N2735       N  0.81247143  0.11460417  0.03730763    -0.43440
N2736       N  0.93354160  0.14460531  0.09518197    -0.43440
C2737       C  0.85660366  0.20750894  0.11988860     0.00150
C2738       C  0.83959959  0.19067057  0.12339943    -0.11730
C2739       C  0.84464845  0.16730876  0.12183114     0.02380
C2740       C  0.86773111  0.15990414  0.12059065     0.00060
C2741       C  0.88515187  0.17666264  0.12055465    -0.11670
C2742       C  0.87982854  0.20025659  0.11922641     0.02270
H2743       H  0.82171180  0.19578340  0.12468462     0.15250
H2744       H  0.90293918  0.17132379  0.11984088     0.15250
C2745       C  0.89838800  0.21614360  0.11508302     0.36900
C2746       C  0.82546688  0.15191396  0.11866115     0.36810
N2747       N  0.91337293  0.22877226  0.11168268    -0.43440
N2748       N  0.80969398  0.14010523  0.11590747    -0.43440
C2749       C  0.86285657  0.29526998  0.11313573     0.00150
C2750       C  0.86402648  0.30572282  0.13487092    -0.11730
C2751       C  0.86824603  0.32945941  0.13680593     0.02380
C2752       C  0.87086287  0.34301408  0.11680148     0.00060
C2753       C  0.87305364  0.33193178  0.09551750    -0.11670
C2754       C  0.86909760  0.30829456  0.09351483     0.02270
H2755       H  0.85988347  0.29580332  0.15011620     0.15250
H2756       H  0.87608178  0.34198443  0.08014464     0.15250
C2757       C  0.86964528  0.29811570  0.07082562     0.36900
C2758       C  0.86873473  0.33980332  0.15935150     0.36810
N2759       N  0.86993330  0.28996376  0.05265557    -0.43440
N2760       N  0.86931445  0.34815753  0.17741735    -0.43440
C2761       C  0.63861034  0.20688267  0.88511314     0.00150
C2762       C  0.64362740  0.19360417  0.90470184    -0.11730
C2763       C  0.64128531  0.16981147  0.90446351     0.02380
C2764       C  0.63124989  0.15880056  0.88526629     0.00060
C2765       C  0.62261002  0.17244891  0.86722178    -0.11670
C2766       C  0.62673206  0.19633340  0.86673275     0.02270
H2767       H  0.65171677  0.20162396  0.91949957     0.15250
H2768       H  0.61471783  0.16417574  0.85248846     0.15250
C2769       C  0.62040553  0.20914035  0.84646827     0.36900
C2770       C  0.65088890  0.15717784  0.92360985     0.36810
N2771       N  0.61527500  0.21944356  0.83022557    -0.43440
N2772       N  0.65862476  0.14740940  0.93914396    -0.43440
C2773       C  0.62334827  0.36613814  0.08917748     0.00150
C2774       C  0.61877581  0.34376133  0.08150137    -0.11730
C2775       C  0.61874700  0.33843627  0.05811665     0.02380
C2776       C  0.62417657  0.35558326  0.04187169     0.00060
C2777       C  0.62649101  0.37843252  0.04926607    -0.11670
C2778       C  0.62599187  0.38381440  0.07279317     0.02270
H2779       H  0.61737906  0.32990954  0.09373940     0.15250
H2780       H  0.63031990  0.39180229  0.03683652     0.15250
C2781       C  0.62939596  0.40735423  0.07971187     0.36900
C2782       C  0.61446910  0.31494533  0.05129144     0.36810
N2783       N  0.63191740  0.42635859  0.08497767    -0.44400
N2784       N  0.61106765  0.29613915  0.04579679    -0.43440
C2785       C  0.40603714  0.62065544  0.37468362     0.00150
C2786       C  0.42261211  0.63803397  0.37759767    -0.11730
C2787       C  0.44625363  0.63283308  0.37790667     0.02380
C2788       C  0.45364198  0.61007828  0.37376878     0.00060
C2789       C  0.43712031  0.59369463  0.36731503    -0.11670
C2790       C  0.41368051  0.59820495  0.36942613     0.02270
H2791       H  0.41710228  0.65531850  0.38164442     0.15250
H2792       H  0.44256262  0.57618146  0.36388309     0.15250
C2793       C  0.39862610  0.57850887  0.36990064     0.36900
C2794       C  0.46213142  0.65056851  0.38479805     0.36810
N2795       N  0.38730006  0.56217333  0.37067552    -0.43440
N2796       N  0.47480774  0.66484760  0.39036046    -0.43440
C2797       C  0.54142994  0.61203095  0.38456856     0.00150
C2798       C  0.55433486  0.61035472  0.40494617    -0.11730
C2799       C  0.57816636  0.61171047  0.40462952     0.02380
C2800       C  0.58966200  0.61889294  0.38446338     0.00060
C2801       C  0.57640602  0.62464868  0.36499488    -0.11670
C2802       C  0.55249537  0.62041084  0.36459712     0.02270
H2803       H  0.54598290  0.60494759  0.42076202     0.15250
H2804       H  0.58502782  0.63019224  0.34940924     0.15250
C2805       C  0.54028941  0.62288859  0.34315417     0.36900
C2806       C  0.59007348  0.60292294  0.42458212     0.36810
N2807       N  0.53051634  0.62488656  0.32592112    -0.43440
N2808       N  0.59898865  0.59546075  0.44075480    -0.43440
C2809       C  0.37102955  0.45578204  0.60823311     0.00150
C2810       C  0.37381076  0.44830092  0.63109605    -0.11730
C2811       C  0.37488243  0.42460116  0.63627917     0.02380
C2812       C  0.37499920  0.40823379  0.61824835     0.00060
C2813       C  0.37067904  0.41591126  0.59586704    -0.11670
C2814       C  0.36670648  0.43901955  0.59112387     0.02270
H2815       H  0.37647969  0.46082202  0.64464492     0.15250
H2816       H  0.37161488  0.40406024  0.58169863     0.15250
C2817       C  0.36035869  0.44530030  0.56787940     0.36900
C2818       C  0.37621132  0.41759839  0.66003179     0.36810
N2819       N  0.35532698  0.45032062  0.54927213    -0.43440
N2820       N  0.37696110  0.41206945  0.67915589    -0.43440
C2821       C  0.37905980  0.54373887  0.61477677     0.00150
C2822       C  0.35744310  0.55451484  0.61478189    -0.11730
C2823       C  0.35561368  0.57845870  0.61808654     0.02380
C2824       C  0.37565543  0.59190972  0.62063979     0.00060
C2825       C  0.39687733  0.58077214  0.62282795    -0.11670
C2826       C  0.39862602  0.55693031  0.62070174     0.02270
H2827       H  0.34224667  0.54458167  0.61060545     0.15250
H2828       H  0.41237579  0.59088925  0.62502833     0.15250
C2829       C  0.42108044  0.54654050  0.62292573     0.36900
C2830       C  0.33321758  0.58902589  0.61771145     0.36810
N2831       N  0.43905523  0.53821309  0.62466458    -0.43440
N2832       N  0.31527043  0.59757981  0.61752422    -0.43440
C2833       C  0.54369248  0.39533858  0.62568704     0.00150
C2834       C  0.55867008  0.41433191  0.62605376    -0.11730
C2835       C  0.58150481  0.41184724  0.61960684     0.02380
C2836       C  0.59183287  0.39006610  0.62024269     0.00060
C2837       C  0.57775271  0.37074036  0.62430296    -0.11670
C2838       C  0.55358260  0.37312850  0.62562731     0.02270
H2839       H  0.55159069  0.43158096  0.62675615     0.15250
H2840       H  0.58537891  0.35376042  0.62452446     0.15250
C2841       C  0.53950105  0.35276614  0.62505317     0.36900
C2842       C  0.59299978  0.43179151  0.61028416     0.36810
N2843       N  0.52824128  0.33638419  0.62451567    -0.43440
N2844       N  0.60134234  0.44826516  0.60289488    -0.43440
C2845       C  0.40711291  0.37893515  0.62235759     0.00150
C2846       C  0.41930128  0.38382527  0.64274437    -0.11730
C2847       C  0.44320009  0.38778186  0.64239223     0.02380
C2848       C  0.45543913  0.38568584  0.62158379     0.00060
C2849       C  0.44378388  0.37751539  0.60210175    -0.11670
C2850       C  0.41989297  0.37495500  0.60202858     0.02270
H2851       H  0.40997742  0.38633593  0.65863573     0.15250
H2852       H  0.45310905  0.37587713  0.58599052     0.15250
C2853       C  0.40924755  0.37107503  0.57999430     0.36900
C2854       C  0.45432692  0.39616548  0.66291446     0.36810
N2855       N  0.40195117  0.36814760  0.56171024    -0.43440
N2856       N  0.46327518  0.40296201  0.67934659    -0.43440
C2857       C  0.62214940  0.45761080  0.38468969     0.00150
C2858       C  0.60533604  0.44755703  0.37075476    -0.11730
C2859       C  0.60631252  0.42419205  0.36482748     0.02380
C2860       C  0.62465126  0.41024066  0.37307057     0.00060
C2861       C  0.64325919  0.42149320  0.38382336    -0.11670
C2862       C  0.64197264  0.44483234  0.39000691     0.02270
H2863       H  0.59017371  0.45750741  0.36637799     0.15250
H2864       H  0.65747473  0.41129331  0.39026780     0.15250
C2865       C  0.66001998  0.45461858  0.40391767     0.36900
C2866       C  0.58601374  0.41501644  0.35406419     0.36810
N2867       N  0.67445568  0.46251891  0.41509633    -0.43440
N2868       N  0.56894108  0.40938604  0.34557380    -0.43440
C2869       C  0.62579408  0.54411437  0.39192772     0.00150
C2870       C  0.61723239  0.55202466  0.37080041    -0.11730
C2871       C  0.61615352  0.57564677  0.36605736     0.02380
C2872       C  0.62361883  0.59173824  0.38269170     0.00060
C2873       C  0.63498649  0.58352165  0.40238832    -0.11670
C2874       C  0.63606997  0.55996588  0.40711812     0.02270
H2875       H  0.60954915  0.53991506  0.35887728     0.15250
H2876       H  0.64071756  0.59544776  0.41544320     0.15250
C2877       C  0.64595428  0.55254727  0.42867286     0.36900
C2878       C  0.60624515  0.58294233  0.34450001     0.36810
N2879       N  0.65384375  0.54657943  0.44595309    -0.43440
N2880       N  0.59838431  0.58862244  0.32710679    -0.43440
C2881       C  0.61515479  0.38359593  0.54112845     0.00150
C2882       C  0.62733341  0.40166053  0.55137909    -0.11730
C2883       C  0.63117935  0.40227358  0.57530510     0.02380
C2884       C  0.62244627  0.38451686  0.58964023     0.00060
C2885       C  0.61305893  0.36503963  0.57872995    -0.11670
C2886       C  0.60923031  0.36452974  0.55484468     0.02270
H2887       H  0.63194944  0.41642041  0.54093824     0.15250
H2888       H  0.60677226  0.35092811  0.58913907     0.15250
C2889       C  0.59691915  0.34531886  0.54511268     0.36900
C2890       C  0.64255108  0.42237092  0.58409184     0.36810
N2891       N  0.58702731  0.32995789  0.53725730    -0.43440
N2892       N  0.65185779  0.43909279  0.58946376    -0.43440
C2893       C  0.60350988  0.38569396  0.45288691     0.00150
C2894       C  0.62154515  0.37115389  0.44540762    -0.11730
C2895       C  0.62827277  0.37046801  0.42193382     0.02380
C2896       C  0.61579074  0.38321676  0.40541337     0.00060
C2897       C  0.59773778  0.39682412  0.41288383    -0.11670
C2898       C  0.59278171  0.39973071  0.43582325     0.02270
H2899       H  0.63055123  0.36051757  0.45775408     0.15250
H2900       H  0.58755971  0.40623308  0.40046439     0.15250
C2901       C  0.57723650  0.41858598  0.43978879     0.36900
C2902       C  0.64807051  0.35712459  0.41538762     0.36810
N2903       N  0.56439455  0.43372164  0.44013011    -0.43440
N2904       N  0.66398750  0.34642388  0.41013713    -0.43440
C2905       C  0.39023967  0.62645383  0.54421519     0.00150
C2906       C  0.40669589  0.63311513  0.56071925    -0.11730
C2907       C  0.40224506  0.63139317  0.58438993     0.02380
C2908       C  0.38036608  0.62429834  0.59213717     0.00060
C2909       C  0.36312741  0.62022530  0.57564233    -0.11670
C2910       C  0.36791380  0.62088670  0.55192431     0.02270
H2911       H  0.42396567  0.63733774  0.55507883     0.15250
H2912       H  0.34619357  0.61499205  0.58126397     0.15250
C2913       C  0.35030197  0.61340854  0.53612868     0.36900
C2914       C  0.42121428  0.63456489  0.60005974     0.36810
N2915       N  0.33615825  0.60734242  0.52351368    -0.43440
N2916       N  0.43672163  0.63696226  0.61229019    -0.43440
C2917       C  0.38517657  0.61987425  0.45609598     0.00150
C2918       C  0.38573678  0.64162901  0.44564017    -0.11730
C2919       C  0.38198091  0.64403037  0.42176451     0.02380
C2920       C  0.37823775  0.62440856  0.40789533     0.00060
C2921       C  0.37550774  0.60309141  0.41884079    -0.11670
C2922       C  0.37831161  0.60079565  0.44266177     0.02270
H2923       H  0.39064365  0.65648621  0.45576462     0.15250
H2924       H  0.37258852  0.58781515  0.40871815     0.15250
C2925       C  0.37550226  0.57827038  0.45276444     0.36900
C2926       C  0.38319161  0.66663259  0.41168430     0.36810
N2927       N  0.37325059  0.56023991  0.46086051    -0.43440
N2928       N  0.38410340  0.68478338  0.40360498    -0.43440
C2929       C  0.20555033  0.61348158  0.36868871     0.00150
C2930       C  0.19614387  0.61764273  0.39057281    -0.11730
C2931       C  0.17237855  0.62163971  0.39311395     0.02380
C2932       C  0.15773576  0.62015567  0.37375052     0.00060
C2933       C  0.16755584  0.61777502  0.35191073    -0.11670
C2934       C  0.19124745  0.61602879  0.34914155     0.02270
H2935       H  0.20694425  0.61616124  0.40570319     0.15250
H2936       H  0.15665804  0.61580297  0.33700179     0.15250
C2937       C  0.20031418  0.61498290  0.32596740     0.36900
C2938       C  0.16305678  0.62511788  0.41584983     0.36810
N2939       N  0.20759080  0.61413839  0.30744114    -0.43440
N2940       N  0.15545485  0.62795081  0.43403638    -0.43440
C2941       C  0.29314967  0.60729980  0.37483669     0.00150
C2942       C  0.29911063  0.63063949  0.37315476    -0.11730
C2943       C  0.32230357  0.63749937  0.37354155     0.02380
C2944       C  0.33986393  0.62081432  0.37472558     0.00060
C2945       C  0.33370476  0.59791557  0.37889222    -0.11670
C2946       C  0.31070627  0.59120762  0.37982220     0.02270
H2947       H  0.28584483  0.64336593  0.37016553     0.15250
H2948       H  0.34686622  0.58484655  0.37986415     0.15250
C2949       C  0.30567874  0.56735960  0.38466475     0.36900
C2950       C  0.32755961  0.66165659  0.37268165     0.36810
N2951       N  0.30167866  0.54825164  0.38846056    -0.43440
N2952       N  0.33131100  0.68117665  0.37259329    -0.43440
C2953       C  0.13469991  0.45663379  0.36513544     0.00150
C2954       C  0.15488549  0.44336321  0.36501173    -0.11730
C2955       C  0.15410610  0.41946232  0.36698057     0.02380
C2956       C  0.13293588  0.40827005  0.37095325     0.00060
C2957       C  0.11336406  0.42187570  0.37512048    -0.11670
C2958       C  0.11397229  0.44589923  0.37176978     0.02270
H2959       H  0.17112209  0.45149854  0.36072740     0.15250
H2960       H  0.09714268  0.41355130  0.37888828     0.15250
C2961       C  0.09284164  0.45872770  0.37322422     0.36900
C2962       C  0.17502478  0.40700769  0.36230195     0.36810
N2963       N  0.07589978  0.46905688  0.37447649    -0.43440
N2964       N  0.19208710  0.39772002  0.35804620    -0.43440
C2965       C  0.12687680  0.54436519  0.36227502     0.00150
C2966       C  0.11425563  0.55996199  0.34876398    -0.11730
C2967       C  0.11354230  0.58351114  0.35410375     0.02380
C2968       C  0.12568355  0.59198160  0.37343369     0.00060
C2969       C  0.13668376  0.57591580  0.38793097    -0.11670
C2970       C  0.13737930  0.55243266  0.38256386     0.02270
H2971       H  0.10603738  0.55388330  0.33314662     0.15250
H2972       H  0.14598020  0.58192713  0.40291186     0.15250
C2973       C  0.15088810  0.53741156  0.39697427     0.36900
C2974       C  0.10075072  0.59842948  0.33900939     0.36810
N2975       N  0.16174687  0.52539744  0.40853205    -0.43440
N2976       N  0.08981737  0.60985871  0.32693880    -0.43440
C2977       C  0.13432808  0.38593896  0.20439485     0.00150
C2978       C  0.12821259  0.36477516  0.19442565    -0.11730
C2979       C  0.12493049  0.36302560  0.17039969     0.02380
C2980       C  0.12944344  0.38221137  0.15620246     0.00060
C2981       C  0.13410324  0.40337848  0.16654638    -0.11670
C2982       C  0.13458613  0.40573982  0.19030468     0.02270
H2983       H  0.12728035  0.34951562  0.20508235     0.15250
H2984       H  0.13802070  0.41817131  0.15596301     0.15250
C2985       C  0.13701193  0.42861263  0.19976556     0.36900
C2986       C  0.11810015  0.34132258  0.16062330     0.36810
N2987       N  0.13891318  0.44690596  0.20733678    -0.43440
N2988       N  0.11234156  0.32397700  0.15278235    -0.43440
C2989       C  0.13690760  0.37680924  0.29199189     0.00150
C2990       C  0.11610965  0.38476406  0.30126419    -0.11730
C2991       C  0.11246286  0.38460791  0.32525524     0.02380
C2992       C  0.13024799  0.37742624  0.34028649     0.00060
C2993       C  0.15026518  0.36825020  0.33050658    -0.11670
C2994       C  0.15307276  0.36653506  0.30680040     0.02270
H2995       H  0.10348760  0.39261172  0.29000851     0.15250
H2996       H  0.16487324  0.36439389  0.34104168     0.15250
C2997       C  0.17408766  0.35652561  0.29805149     0.36900
C2998       C  0.09084198  0.39300399  0.33396758     0.36810
N2999       N  0.19087310  0.34851465  0.29100339    -0.43440
N3000       N  0.07335597  0.39965787  0.34072020    -0.43440
C3001       C  0.37045106  0.45582802  0.14043783     0.00150
C3002       C  0.37570034  0.43933370  0.15728139    -0.11730
C3003       C  0.37373238  0.41594686  0.15271361     0.02380
C3004       C  0.37030950  0.40826875  0.12988956     0.00060
C3005       C  0.36833661  0.42478226  0.11229962    -0.11670
C3006       C  0.36748387  0.44840436  0.11746523     0.02270
H3007       H  0.37829267  0.44477669  0.17497139     0.15250
H3008       H  0.36563526  0.41922123  0.09473523     0.15250
C3009       C  0.36130593  0.46418954  0.09935610     0.36900
C3010       C  0.37189760  0.40098265  0.17243142     0.36810
N3011       N  0.35623479  0.47677252  0.08478964    -0.43440
N3012       N  0.37012753  0.38967332  0.18873540    -0.43440
C3013       C  0.36459235  0.54366836  0.13741871     0.00150
C3014       C  0.38635521  0.55226816  0.13146114    -0.11730
C3015       C  0.38945411  0.57592878  0.12742131     0.02380
C3016       C  0.37093425  0.59121711  0.13090322     0.00060
C3017       C  0.34889192  0.58221005  0.13434129    -0.11670
C3018       C  0.34544655  0.55864445  0.13642224     0.02270
H3019       H  0.40105194  0.54083193  0.13121466     0.15250
H3020       H  0.33433994  0.59374500  0.13597105     0.15250
C3021       C  0.32212255  0.55033798  0.13868859     0.36900
C3022       C  0.41176431  0.58418684  0.12053036     0.36810
N3023       N  0.30347143  0.54366681  0.14049800    -0.43440
N3024       N  0.42964681  0.59075207  0.11481458    -0.43440
C3025       C  0.29210022  0.38497712  0.12988433     0.00150
C3026       C  0.30221805  0.38654054  0.10800766    -0.11730
C3027       C  0.32594377  0.38282642  0.10522323     0.02380
C3028       C  0.33979004  0.37798469  0.12458156     0.00060
C3029       C  0.32902201  0.37335213  0.14566684    -0.11670
C3030       C  0.30539751  0.37659443  0.14841823     0.02270
H3031       H  0.29204655  0.39246422  0.09353979     0.15250
H3032       H  0.33923324  0.36908171  0.16058785     0.15250
C3033       C  0.29551680  0.37322627  0.17100428     0.36900
C3034       C  0.33594857  0.38525949  0.08264676     0.36810
N3035       N  0.28759990  0.37063420  0.18909876    -0.43440
N3036       N  0.34399347  0.38706570  0.06451691    -0.43440
C3037       C  0.20518723  0.39374446  0.12407550     0.00150
C3038       C  0.19767408  0.37101285  0.12709124    -0.11730
C3039       C  0.17410083  0.36568680  0.12659153     0.02380
C3040       C  0.15773424  0.38334432  0.12357807     0.00060
C3041       C  0.16555438  0.40549006  0.11825658    -0.11670
C3042       C  0.18895185  0.41064164  0.11773915     0.02270
H3043       H  0.20999963  0.35775437  0.13149960     0.15250
H3044       H  0.15343101  0.41937279  0.11654902     0.15250
C3045       C  0.19577838  0.43391613  0.11235727     0.36900
C3046       C  0.16715472  0.34217561  0.13002738     0.36810
N3047       N  0.20124574  0.45256018  0.10811297    -0.43440
N3048       N  0.16194725  0.32314222  0.13244080    -0.43440
C3049       C  0.37002410  0.62448637  0.15781200     0.00150
C3050       C  0.34849681  0.63346016  0.16405611    -0.11730
C3051       C  0.34133434  0.63366996  0.18721959     0.02380
C3052       C  0.35588728  0.62498964  0.20477106     0.00060
C3053       C  0.37814395  0.61813410  0.19877501    -0.11670
C3054       C  0.38516624  0.61754750  0.17566103     0.02270
H3055       H  0.33654736  0.63855965  0.15067119     0.15250
H3056       H  0.38951875  0.61152121  0.21200255     0.15250
C3057       C  0.40806450  0.60940340  0.17083487     0.36900
C3058       C  0.31840465  0.64158264  0.19245692     0.36810
N3059       N  0.42667564  0.60319304  0.16761796    -0.43440
N3060       N  0.29999968  0.64778935  0.19673309    -0.43440
C3061       C  0.36055410  0.61945090  0.29298725     0.00150
C3062       C  0.36345039  0.64127824  0.30297340    -0.11730
C3063       C  0.36753295  0.64358530  0.32688186     0.02380
C3064       C  0.36738587  0.62398160  0.34130228     0.00060
C3065       C  0.36622841  0.60231454  0.33083942    -0.11670
C3066       C  0.36424885  0.59991530  0.30700259     0.02270
H3067       H  0.36125315  0.65649012  0.29243431     0.15250
H3068       H  0.36542189  0.58705741  0.34131208     0.15250
C3069       C  0.36457982  0.57697974  0.29743927     0.36900
C3070       C  0.37101887  0.66621176  0.33629892     0.36810
N3071       N  0.36496112  0.55863149  0.28977407    -0.43440
N3072       N  0.37418183  0.68441093  0.34366086    -0.43440
C3073       C  0.11670833  0.40940409  0.87710372     0.00150
C3074       C  0.09507283  0.41887799  0.88161846    -0.11730
C3075       C  0.09205492  0.44249363  0.88358201     0.02380
C3076       C  0.11142886  0.45717774  0.88359209     0.00060
C3077       C  0.13279616  0.44811121  0.87678616    -0.11670
C3078       C  0.13535585  0.42431669  0.87289763     0.02270
H3079       H  0.08048766  0.40763661  0.88445855     0.15250
H3080       H  0.14767379  0.45927616  0.87584785     0.15250
C3081       C  0.15723165  0.41552720  0.86533984     0.36900
C3082       C  0.06897182  0.45108379  0.88696853     0.36810
N3083       N  0.17469672  0.40850180  0.85892525    -0.43440
N3084       N  0.05049660  0.45791872  0.88970932    -0.43440
C3085       C  0.12225457  0.54433186  0.88736578     0.00150
C3086       C  0.13401686  0.55749348  0.90371505    -0.11730
C3087       C  0.13396137  0.58145719  0.90274513     0.02380
C3088       C  0.12401384  0.59286215  0.88360388     0.00060
C3089       C  0.11556627  0.57923953  0.86535599    -0.11670
C3090       C  0.11401055  0.55520542  0.86736717     0.02270
H3091       H  0.14036125  0.54907636  0.91915330     0.15250
H3092       H  0.10810413  0.58749623  0.85040757     0.15250
C3093       C  0.10173353  0.54246723  0.84997196     0.36900
C3094       C  0.14093737  0.59286157  0.92358186     0.36810
N3095       N  0.09183986  0.53226512  0.83603956    -0.43440
N3096       N  0.14646016  0.60027755  0.94122516    -0.43440
C3097       C  0.10847572  0.37792637  0.95449055     0.00150
C3098       C  0.13069853  0.38239593  0.94624054    -0.11730
C3099       C  0.13531173  0.38198733  0.92244422     0.02380
C3100       C  0.11732446  0.37789064  0.90657290     0.00060
C3101       C  0.09570450  0.37181541  0.91527236    -0.11670
C3102       C  0.09150341  0.37058456  0.93881297     0.02270
H3103       H  0.14400449  0.38773725  0.95816065     0.15250
H3104       H  0.08133661  0.36994491  0.90391761     0.15250
C3105       C  0.06887121  0.36363933  0.94642404     0.36900
C3106       C  0.15837689  0.38679827  0.91482921     0.36810
N3107       N  0.05076801  0.35811798  0.95254742    -0.43440
N3108       N  0.17710402  0.39040029  0.90919167    -0.43440
C3109       C  0.11592076  0.38487921  0.04183455     0.00150
C3110       C  0.11953857  0.40507240  0.05450571    -0.11730
C3111       C  0.12034320  0.40464967  0.07845484     0.02380
C3112       C  0.12015495  0.38340504  0.09019344     0.00060
C3113       C  0.12045663  0.36296959  0.07721775    -0.11670
C3114       C  0.11773508  0.36355333  0.05314773     0.02270
H3115       H  0.11852111  0.42155592  0.04579592     0.15250
H3116       H  0.12067151  0.34656067  0.08605161     0.15250
C3117       C  0.11464033  0.34229259  0.04080010     0.36900
C3118       C  0.11906400  0.42647950  0.09011136     0.36810
N3119       N  0.11217307  0.32526231  0.03082698    -0.43440
N3120       N  0.11824327  0.44446245  0.09856296    -0.43440
C3121       C  0.87669090  0.45830897  0.11055164     0.00150
C3122       C  0.88249392  0.44879759  0.13198745    -0.11730
C3123       C  0.88164951  0.42483683  0.13547609     0.02380
C3124       C  0.87584857  0.40999317  0.11704079     0.00060
C3125       C  0.86823488  0.41992509  0.09643655    -0.11670
C3126       C  0.86757160  0.44369222  0.09345097     0.02270
H3127       H  0.88920208  0.45984289  0.14543055     0.15250
H3128       H  0.86450739  0.40932105  0.08181656     0.15250
C3129       C  0.85936155  0.45264487  0.07173662     0.36900
C3130       C  0.88758341  0.41593439  0.15785794     0.36810
N3131       N  0.85279701  0.45983345  0.05436514    -0.43440
N3132       N  0.89216239  0.40901648  0.17596530    -0.43440
C3133       C  0.87928370  0.59404678  0.12243659     0.00150
C3134       C  0.86014484  0.58001361  0.11782538    -0.11730
C3135       C  0.86244427  0.55612815  0.11528391     0.02380
C3136       C  0.88426436  0.54584525  0.11732332     0.00060
C3137       C  0.90286745  0.55951192  0.12461237    -0.11670
C3138       C  0.90052447  0.58339042  0.12732525     0.02270
H3139       H  0.84363244  0.58791420  0.11449267     0.15250
H3140       H  0.91970822  0.55173685  0.12645294     0.15250
C3141       C  0.92054487  0.59671175  0.13338947     0.36900
C3142       C  0.84267155  0.54292138  0.10824711     0.36810
N3143       N  0.93660206  0.60738509  0.13827215    -0.43440
N3144       N  0.82682982  0.53229114  0.10263315    -0.43440
C3145       C  0.04228539  0.38798139  0.12164357     0.00150
C3146       C  0.05625696  0.40374978  0.13326022    -0.11730
C3147       C  0.08017744  0.40188977  0.13279435     0.02380
C3148       C  0.09069422  0.38257126  0.12228854     0.00060
C3149       C  0.07631186  0.36510088  0.11357943    -0.11670
C3150       C  0.05234606  0.36792388  0.11260664     0.02270
H3151       H  0.04850556  0.41929912  0.14008594     0.15250
H3152       H  0.08390412  0.35007994  0.10562978     0.15250
C3153       C  0.03884199  0.35135683  0.10002026     0.36900
C3154       C  0.09260640  0.42191286  0.14032182     0.36810
N3155       N  0.02804291  0.33812239  0.08982386    -0.43440
N3156       N  0.10107917  0.43883767  0.14644127    -0.43440
C3157       C  0.95495113  0.38454461  0.11301576     0.00150
C3158       C  0.94179292  0.38279872  0.09287719    -0.11730
C3159       C  0.91791561  0.38095825  0.09380426     0.02380
C3160       C  0.90665760  0.37926062  0.11528666     0.00060
C3161       C  0.92018421  0.37706953  0.13525042    -0.11670
C3162       C  0.94419395  0.38018839  0.13434259     0.02270
H3163       H  0.95002908  0.38545500  0.07631188     0.15250
H3164       H  0.91185870  0.37484875  0.15176539     0.15250
C3165       C  0.95700368  0.38092213  0.15556607     0.36900
C3166       C  0.90574076  0.38332868  0.07235626     0.36810
N3167       N  0.96732094  0.38146544  0.17258453    -0.43440
N3168       N  0.89727399  0.38567592  0.05450437    -0.43440
C3169       C  0.88276085  0.61993292  0.95601448     0.00150
C3170       C  0.87362190  0.60125312  0.94391186    -0.11730
C3171       C  0.87097451  0.60202317  0.92002690     0.02380
C3172       C  0.87616344  0.62245648  0.90785522     0.00060
C3173       C  0.88220628  0.64214597  0.92057669    -0.11670
C3174       C  0.88605097  0.64090100  0.94443120     0.02270
H3175       H  0.87121608  0.58503244  0.95283547     0.15250
H3176       H  0.88604429  0.65798661  0.91161749     0.15250
C3177       C  0.89578526  0.66047310  0.95613379     0.36900
C3178       C  0.86602200  0.58052738  0.90878337     0.36810
N3179       N  0.90370608  0.67610014  0.96554928    -0.43440
N3180       N  0.86228431  0.56261734  0.90099824    -0.43440
C3181       C  0.89019408  0.62201943  0.04345476     0.00150
C3182       C  0.86728474  0.62198842  0.05126133    -0.11730
C3183       C  0.86241249  0.62317809  0.07502738     0.02380
C3184       C  0.88064608  0.62313726  0.09104427     0.00060
C3185       C  0.90320909  0.62361124  0.08296761    -0.11670
C3186       C  0.90800576  0.62520220  0.05966002     0.02270
H3187       H  0.85338010  0.61980934  0.03904166     0.15250
H3188       H  0.91733462  0.62298841  0.09507059     0.15250
C3189       C  0.93161895  0.62902195  0.05279805     0.36900
C3190       C  0.83884084  0.62322942  0.08263870     0.36810
N3191       N  0.95048364  0.63208435  0.04727975    -0.43440
N3192       N  0.81994143  0.62334594  0.08883467    -0.43440
C3193       C  0.04290321  0.61649367  0.88421322     0.00150
C3194       C  0.05490908  0.61892195  0.90501215    -0.11730
C3195       C  0.07885958  0.61969457  0.90554974     0.02380
C3196       C  0.09152242  0.62187567  0.88488702     0.00060
C3197       C  0.07912744  0.62332686  0.86401947    -0.11670
C3198       C  0.05507143  0.61979680  0.86347429     0.02270
H3199       H  0.04567837  0.61656338  0.92109929     0.15250
H3200       H  0.08849307  0.62485901  0.84795735     0.15250
C3201       C  0.04368441  0.61750457  0.84156300     0.36900
C3202       C  0.08927702  0.61458170  0.92742999     0.36810
N3203       N  0.03450972  0.61561845  0.82399168    -0.43440
N3204       N  0.09599229  0.60977790  0.94554931    -0.43440
C3205       C  0.95463516  0.60895067  0.87673675     0.00150
C3206       C  0.94687256  0.63187516  0.87695401    -0.11730
C3207       C  0.92306229  0.63683579  0.87638134     0.02380
C3208       C  0.90686988  0.61871993  0.87751319     0.00060
C3209       C  0.91495126  0.59619086  0.87654593    -0.11670
C3210       C  0.93812164  0.59134851  0.87363203     0.02270
H3211       H  0.95916854  0.64574983  0.87869312     0.15250
H3212       H  0.90324694  0.58209480  0.87903358     0.15250
C3213       C  0.94453776  0.56774774  0.86911012     0.36900
C3214       C  0.91567522  0.66044581  0.87553548     0.36810
N3215       N  0.94963362  0.54886272  0.86553487    -0.43440
N3216       N  0.90972083  0.67939445  0.87466433    -0.43440
C3217       C  0.12742984  0.70614990  0.36090683     0.00150
C3218       C  0.13189245  0.68955517  0.34397925    -0.11730
C3219       C  0.13093777  0.66617221  0.34907916     0.02380
C3220       C  0.12855517  0.65879675  0.37218724     0.00060
C3221       C  0.13000258  0.67553390  0.38972171    -0.11670
C3222       C  0.12819088  0.69915015  0.38427421     0.02270
H3223       H  0.13274220  0.69478217  0.32605206     0.15250
H3224       H  0.12837439  0.67012493  0.40751090     0.15250
C3225       C  0.12379732  0.71506682  0.40276719     0.36900
C3226       C  0.12911394  0.65085224  0.32967338     0.36810
N3227       N  0.12016979  0.72774312  0.41767819    -0.43440
N3228       N  0.12786136  0.63961407  0.31328682    -0.43440
C3229       C  0.11405307  0.84149688  0.37207133     0.00150
C3230       C  0.13488010  0.82920356  0.37310980    -0.11730
C3231       C  0.13546597  0.80537377  0.36851089     0.02380
C3232       C  0.11483267  0.79350492  0.36371493     0.00060
C3233       C  0.09397706  0.80546180  0.36568237    -0.11670
C3234       C  0.09346720  0.82918882  0.36840846     0.02270
H3235       H  0.15083661  0.83853641  0.37542386     0.15250
H3236       H  0.07790653  0.79646215  0.36269596     0.15250
C3237       C  0.07144666  0.84039868  0.36594854     0.36900
C3238       C  0.15741663  0.79402930  0.36687571     0.36810
N3239       N  0.05342909  0.84859757  0.36407620    -0.43440
N3240       N  0.17503727  0.78490832  0.36559263    -0.43440
C3241       C  0.88829973  0.63230108  0.20544426     0.00150
C3242       C  0.89522992  0.65141937  0.19260473    -0.11730
C3243       C  0.89585625  0.65047897  0.16888583     0.02380
C3244       C  0.88284296  0.63375817  0.15691672     0.00060
C3245       C  0.87200179  0.61640807  0.17017355    -0.11670
C3246       C  0.87598717  0.61474392  0.19415418     0.02270
H3247       H  0.90407211  0.66550965  0.20111215     0.15250
H3248       H  0.86098712  0.60387448  0.16200045     0.15250
C3249       C  0.86792755  0.59487078  0.20655569     0.36900
C3250       C  0.91309222  0.66478282  0.15823672     0.36810
N3251       N  0.86150344  0.57890593  0.21653796    -0.43440
N3252       N  0.92779864  0.67619766  0.15120771    -0.43440
C3253       C  0.04251305  0.64127400  0.37860294     0.00150
C3254       C  0.05225448  0.61960103  0.38255575    -0.11730
C3255       C  0.07628093  0.61721357  0.38604864     0.02380
C3256       C  0.09142684  0.63607760  0.38121120     0.00060
C3257       C  0.08042755  0.65782324  0.37982970    -0.11670
C3258       C  0.05681758  0.66055782  0.38068555     0.02270
H3259       H  0.04116365  0.60464294  0.38316109     0.15250
H3260       H  0.08965137  0.67358139  0.37743371     0.15250
C3261       C  0.04767595  0.68372239  0.38140367     0.36900
C3262       C  0.08338063  0.59655012  0.39759557     0.36810
N3263       N  0.04044443  0.70223723  0.38189344    -0.43440
N3264       N  0.08791371  0.57986215  0.40744023    -0.43440
C3265       C  0.10313988  0.87343173  0.29612050     0.00150
C3266       C  0.08771270  0.88421979  0.31129122    -0.11730
C3267       C  0.09177041  0.88479376  0.33513032     0.02380
C3268       C  0.11180160  0.87439440  0.34427498     0.00060
C3269       C  0.12841268  0.86610243  0.32867454    -0.11670
C3270       C  0.12419800  0.86533225  0.30489457     0.02270
H3271       H  0.07149489  0.89058793  0.30464389     0.15250
H3272       H  0.14405432  0.85842577  0.33527412     0.15250
C3273       C  0.14063424  0.85385967  0.29025392     0.36900
C3274       C  0.07408197  0.89447271  0.34955591     0.36810
N3275       N  0.15378188  0.84460591  0.27853027    -0.43440
N3276       N  0.05962186  0.90240075  0.36069213    -0.43440
C3277       C  0.10829405  0.86622596  0.20847342     0.00150
C3278       C  0.10931173  0.88796522  0.19798917    -0.11730
C3279       C  0.11396214  0.89012115  0.17420379     0.02380
C3280       C  0.11679661  0.87029743  0.16037425     0.00060
C3281       C  0.11768008  0.84890555  0.17148383    -0.11670
C3282       C  0.11443702  0.84682580  0.19523563     0.02270
H3283       H  0.10514881  0.90311054  0.20801759     0.15250
H3284       H  0.11905679  0.83341367  0.16149601     0.15250
C3285       C  0.11611695  0.82424260  0.20545424     0.36900
C3286       C  0.11503229  0.91279903  0.16433899     0.36810
N3287       N  0.11757404  0.80618213  0.21366024    -0.43440
N3288       N  0.11624922  0.93116794  0.15681891    -0.43440
C3289       C  0.87123094  0.70857823  0.13450939     0.00150
C3290       C  0.88750281  0.70016314  0.11898559    -0.11730
C3291       C  0.88903458  0.67659765  0.11427187     0.02380
C3292       C  0.87298718  0.66116526  0.12452780     0.00060
C3293       C  0.85387792  0.67072279  0.13597881    -0.11670
C3294       C  0.85331768  0.69411274  0.14171155     0.02270
H3295       H  0.90122523  0.71151668  0.11338353     0.15250
H3296       H  0.84117211  0.65934890  0.14353515     0.15250
C3297       C  0.83573323  0.70238098  0.15712134     0.36900
C3298       C  0.91019595  0.66953439  0.10353201     0.36810
N3299       N  0.82166911  0.70908183  0.16949741    -0.43440
N3300       N  0.92800510  0.66577918  0.09548127    -0.43440
C3301       C  0.87438165  0.79441297  0.14348993     0.00150
C3302       C  0.88317180  0.80258461  0.12256516    -0.11730
C3303       C  0.88270710  0.82615355  0.11740462     0.02380
C3304       C  0.87353311  0.84199867  0.13346551     0.00060
C3305       C  0.86219697  0.83320467  0.15293621    -0.11670
C3306       C  0.86267546  0.80972507  0.15810892     0.02270
H3307       H  0.89170050  0.79076542  0.11093043     0.15250
H3308       H  0.85519568  0.84472471  0.16558254     0.15250
C3309       C  0.85229014  0.80188738  0.17928193     0.36900
C3310       C  0.89259018  0.83369924  0.09591620     0.36810
N3311       N  0.84396373  0.79554942  0.19622432    -0.43440
N3312       N  0.90046075  0.83953027  0.07857299    -0.43440
C3313       C  0.04187940  0.85444977  0.12868332     0.00150
C3314       C  0.04862670  0.87762074  0.12696844    -0.11730
C3315       C  0.07211059  0.88346775  0.12551334     0.02380
C3316       C  0.08895376  0.86615395  0.12767233     0.00060
C3317       C  0.08195882  0.84323177  0.12750237    -0.11670
C3318       C  0.05893019  0.83730423  0.12592775     0.02270
H3319       H  0.03583779  0.89111970  0.12779552     0.15250
H3320       H  0.09449423  0.82975955  0.12982252     0.15250
C3321       C  0.05336931  0.81327137  0.12279315     0.36900
C3322       C  0.07844561  0.90706951  0.12165920     0.36810
N3323       N  0.04896302  0.79403398  0.12035697    -0.43440
N3324       N  0.08326083  0.92597678  0.11783200    -0.43440
C3325       C  0.95423246  0.86255237  0.13742876     0.00150
C3326       C  0.94092957  0.86156087  0.15758876    -0.11730
C3327       C  0.91716409  0.86313567  0.15667422     0.02380
C3328       C  0.90627719  0.87018051  0.13613255     0.00060
C3329       C  0.92006124  0.87573456  0.11696875    -0.11670
C3330       C  0.94388178  0.87106606  0.11716134     0.02270
H3331       H  0.94883470  0.85614656  0.17363234     0.15250
H3332       H  0.91189227  0.88123518  0.10112925     0.15250
C3333       C  0.95670226  0.87320143  0.09604039     0.36900
C3334       C  0.90459809  0.85503534  0.17655786     0.36810
N3335       N  0.96699183  0.87495884  0.07908124    -0.43440
N3336       N  0.89503812  0.84844710  0.19274542    -0.43440
C3337       C  0.36761369  0.70539618  0.10742335     0.00150
C3338       C  0.37698364  0.69668691  0.12793571    -0.11730
C3339       C  0.38129855  0.67279937  0.13052702     0.02380
C3340       C  0.37271348  0.65680238  0.11389060     0.00060
C3341       C  0.36328442  0.66651611  0.09370222    -0.11670
C3342       C  0.36389668  0.68978205  0.08926657     0.02270
H3343       H  0.38149600  0.70850496  0.14163183     0.15250
H3344       H  0.35613366  0.65610267  0.08013585     0.15250
C3345       C  0.36080405  0.69696344  0.06555934     0.36900
C3346       C  0.39645646  0.66639894  0.14898109     0.36810
N3347       N  0.35848737  0.70242779  0.04654238    -0.43440
N3348       N  0.40912548  0.66254805  0.16383722    -0.43440
C3349       C  0.37300885  0.79380582  0.11092949     0.00150
C3350       C  0.37707965  0.80851113  0.09223839    -0.11730
C3351       C  0.37400474  0.83215282  0.09440448     0.02380
C3352       C  0.37097677  0.84205513  0.11642795     0.00060
C3353       C  0.37115646  0.82748253  0.13579087    -0.11670
C3354       C  0.37123693  0.80343346  0.13312518     0.02270
H3355       H  0.37850043  0.80118592  0.07509712     0.15250
H3356       H  0.36930829  0.83477827  0.15284428     0.15250
C3357       C  0.36706185  0.78912822  0.15296210     0.36900
C3358       C  0.37132653  0.84490025  0.07329164     0.36810
N3359       N  0.36362895  0.77761643  0.16883858    -0.43440
N3360       N  0.36955626  0.85422057  0.05578302    -0.43440
C3361       C  0.13560012  0.79569331  0.88173410     0.00150
C3362       C  0.15576413  0.80795667  0.87670807    -0.11730
C3363       C  0.15558559  0.83185487  0.87452143     0.02380
C3364       C  0.13467056  0.84403734  0.87612378     0.00060
C3365       C  0.11406368  0.83136712  0.87737482    -0.11670
C3366       C  0.11439488  0.80735364  0.88057032     0.02270
H3367       H  0.17214360  0.79903111  0.87697735     0.15250
H3368       H  0.09779422  0.84040674  0.87784453     0.15250
C3369       C  0.09305130  0.79546378  0.88470335     0.36900
C3370       C  0.17749767  0.84322844  0.87259573     0.36810
N3371       N  0.07593737  0.78586558  0.88794152    -0.43440
N3372       N  0.19549884  0.85147169  0.87079428    -0.43440
C3373       C  0.12507299  0.70839578  0.88998503     0.00150
C3374       C  0.11909148  0.69400382  0.90841712    -0.11730
C3375       C  0.12081686  0.67019526  0.90652124     0.02380
C3376       C  0.12510642  0.66001205  0.88486123     0.00060
C3377       C  0.12693919  0.67446176  0.86548661    -0.11670
C3378       C  0.12761450  0.69852666  0.86794898     0.02270
H3379       H  0.11679415  0.70148461  0.92539264     0.15250
H3380       H  0.12993064  0.66699144  0.84869711     0.15250
C3381       C  0.13308549  0.71238363  0.84811129     0.36900
C3382       C  0.12258954  0.65774319  0.92786601     0.36810
N3383       N  0.13741638  0.72347389  0.83215230    -0.43440
N3384       N  0.12495655  0.64919251  0.94568696    -0.43440
C3385       C  0.13581698  0.87397463  0.95648453     0.00150
C3386       C  0.15330789  0.88431922  0.94363478    -0.11730
C3387       C  0.15356241  0.88313929  0.91961933     0.02380
C3388       C  0.13423552  0.87451211  0.90750161     0.00060
C3389       C  0.11509278  0.86732163  0.92065238    -0.11670
C3390       C  0.11612385  0.86606381  0.94486300     0.02270
H3391       H  0.16869804  0.89000655  0.95256991     0.15250
H3392       H  0.09993996  0.86086518  0.91201914     0.15250
C3393       C  0.09794651  0.85446905  0.95713025     0.36900
C3394       C  0.17563734  0.88719608  0.90932545     0.36810
N3395       N  0.08344494  0.84500924  0.96693566    -0.43440
N3396       N  0.19438248  0.89027216  0.90345110    -0.43440
C3397       C  0.13214333  0.86853166  0.04455570     0.00150
C3398       C  0.12384231  0.84922428  0.05625710    -0.11730
C3399       C  0.12187161  0.84889001  0.08028761     0.02380
C3400       C  0.12688962  0.86889834  0.09336570     0.00060
C3401       C  0.13269276  0.88906928  0.08117879    -0.11670
C3402       C  0.13597010  0.88885521  0.05712555     0.02270
H3403       H  0.12117817  0.83342985  0.04666521     0.15250
H3404       H  0.13635553  0.90467857  0.09062892     0.15250
C3405       C  0.14541662  0.90892237  0.04604620     0.36900
C3406       C  0.11658188  0.82689265  0.09026188     0.36810
N3407       N  0.15315916  0.92492066  0.03711265    -0.43440
N3408       N  0.11210289  0.80854964  0.09652379    -0.43440
C3409       C  0.15816291  0.63205249  0.88232573     0.00150
C3410       C  0.16997186  0.63261239  0.90329346    -0.11730
C3411       C  0.19384663  0.63408562  0.90432192     0.02380
C3412       C  0.20662280  0.63847333  0.88414163     0.00060
C3413       C  0.19524935  0.63702350  0.86280027    -0.11670
C3414       C  0.17122759  0.63327510  0.86178218     0.02270
H3415       H  0.16052657  0.63339841  0.91916483     0.15250
H3416       H  0.20479367  0.64017525  0.84708635     0.15250
C3417       C  0.16017661  0.63233062  0.83959221     0.36900
C3418       C  0.20477482  0.63255510  0.92662513     0.36810
N3419       N  0.15129556  0.63158222  0.82178334    -0.43440
N3420       N  0.21355762  0.63117387  0.94444466    -0.43440
C3421       C  0.35934963  0.62052403  0.04374952     0.00150
C3422       C  0.38214719  0.62554296  0.05002712    -0.11730
C3423       C  0.38907257  0.62479097  0.07326690     0.02380
C3424       C  0.37293530  0.61926198  0.09065207     0.00060
C3425       C  0.35137633  0.61061986  0.08374714    -0.11670
C3426       C  0.34464800  0.61096036  0.06054970     0.02270
H3427       H  0.39372875  0.63270097  0.03727806     0.15250
H3428       H  0.33850833  0.60668308  0.09658244     0.15250
C3429       C  0.32163869  0.60371814  0.05469961     0.36900
C3430       C  0.41145563  0.63357736  0.07930408     0.36810
N3431       N  0.30321477  0.59791847  0.04995932    -0.43440
N3432       N  0.42931765  0.64077612  0.08425998    -0.43440
C3433       C  0.20360402  0.86162689  0.12738688     0.00150
C3434       C  0.18913391  0.84341859  0.13372410    -0.11730
C3435       C  0.16530371  0.84542614  0.13220913     0.02380
C3436       C  0.15524561  0.86683979  0.12668010     0.00060
C3437       C  0.16976773  0.88606051  0.12420719    -0.11670
C3438       C  0.19383149  0.88352194  0.12396688     0.02270
H3439       H  0.19657621  0.82657048  0.13672882     0.15250
H3440       H  0.16236888  0.90274425  0.12059552     0.15250
C3441       C  0.20789522  0.90304663  0.11803746     0.36900
C3442       C  0.15234101  0.82439780  0.13384881     0.36810
N3443       N  0.21919404  0.91872033  0.11332802    -0.43440
N3444       N  0.14298546  0.80692186  0.13545324    -0.43440
C3445       C  0.33985835  0.87238377  0.12103215     0.00150
C3446       C  0.32787587  0.86449281  0.14059864    -0.11730
C3447       C  0.30387024  0.86158626  0.14031757     0.02380
C3448       C  0.29128862  0.86714329  0.12038863     0.00060
C3449       C  0.30280659  0.87763088  0.10197458    -0.11670
C3450       C  0.32677501  0.88017372  0.10198989     0.02270
H3451       H  0.33743345  0.85891580  0.15558423     0.15250
H3452       H  0.29317840  0.88198065  0.08657238     0.15250
C3453       C  0.33699818  0.88924447  0.08132438     0.36900
C3454       C  0.29281793  0.85082916  0.15976089     0.36810
N3455       N  0.34391505  0.89680519  0.06424490    -0.43440
N3456       N  0.28390003  0.84218112  0.17531876    -0.43440
C3457       C  0.62497431  0.34178026  0.88218007     0.00150
C3458       C  0.63396970  0.33040456  0.90175596    -0.11730
C3459       C  0.63704120  0.30685440  0.90247503     0.02380
C3460       C  0.63606380  0.29403662  0.88212622     0.00060
C3461       C  0.62607822  0.30420862  0.86263247    -0.11670
C3462       C  0.61881683  0.32746007  0.86319039     0.02270
H3463       H  0.63840410  0.33956513  0.91724506     0.15250
H3464       H  0.62354302  0.29395941  0.84726005     0.15250
C3465       C  0.60300465  0.33464838  0.84557181     0.36900
C3466       C  0.64101132  0.29587829  0.92443380     0.36810
N3467       N  0.58987579  0.33946694  0.83141015    -0.43440
N3468       N  0.64345437  0.28650319  0.94180919    -0.43440
C3469       C  0.61791664  0.37590238  0.90877802     0.00150
C3470       C  0.63689124  0.38464267  0.92094626    -0.11730
C3471       C  0.63934642  0.38105544  0.94451478     0.02380
C3472       C  0.62287742  0.36785187  0.95628823     0.00060
C3473       C  0.60212618  0.36244285  0.94528258    -0.11670
C3474       C  0.59936473  0.36682866  0.92164778     0.02270
H3475       H  0.65183565  0.39086384  0.91184515     0.15250
H3476       H  0.58919679  0.35258081  0.95443414     0.15250
C3477       C  0.57904586  0.35842249  0.91018811     0.36900
C3478       C  0.66050189  0.38804996  0.95554870     0.36810
N3479       N  0.56283694  0.35163134  0.90087541    -0.43440
N3480       N  0.67745597  0.39358285  0.96436486    -0.43440
C3481       C  0.90811383  0.37433910  0.62750988     0.00150
C3482       C  0.91589788  0.38307027  0.64864114    -0.11730
C3483       C  0.93934274  0.38409948  0.65373386     0.02380
C3484       C  0.95555098  0.37531905  0.63793119     0.00060
C3485       C  0.94806546  0.36871922  0.61596283    -0.11670
C3486       C  0.92452842  0.36828738  0.61062816     0.02270
H3487       H  0.90371634  0.38706919  0.66209315     0.15250
H3488       H  0.96039692  0.36205581  0.60365836     0.15250
C3489       C  0.91764728  0.36019449  0.58820960     0.36900
C3490       C  0.94630127  0.39246782  0.67609218     0.36810
N3491       N  0.91245887  0.35379439  0.57008270    -0.43440
N3492       N  0.95191500  0.39916606  0.69398621    -0.43440
C3493       C  0.88025771  0.34129197  0.62876300     0.00150
C3494       C  0.88722105  0.33164682  0.64972711    -0.11730
C3495       C  0.88941955  0.30798195  0.65235225     0.02380
C3496       C  0.88724352  0.29346731  0.63295810     0.00060
C3497       C  0.87810300  0.30268828  0.61253052    -0.11670
C3498       C  0.87395839  0.32648865  0.61057655     0.02270
H3499       H  0.89205606  0.34273453  0.66388887     0.15250
H3500       H  0.87573750  0.29166024  0.59768260     0.15250
C3501       C  0.86477558  0.33549929  0.58937143     0.36900
C3502       C  0.89562882  0.29915689  0.67478818     0.36810
N3503       N  0.85724587  0.34279297  0.57244427    -0.43440
N3504       N  0.90060696  0.29212840  0.69274853    -0.43440
C3505       C  0.84126857  0.37428986  0.62830211     0.00150
C3506       C  0.82553062  0.38055573  0.61099863    -0.11730
C3507       C  0.80178230  0.38108402  0.61536609     0.02380
C3508       C  0.79337554  0.37398765  0.63700688     0.00060
C3509       C  0.80889527  0.36456206  0.65294298    -0.11670
C3510       C  0.83259800  0.36598856  0.64945811     0.02270
H3511       H  0.83188129  0.38713135  0.59476496     0.15250
H3512       H  0.80257658  0.35928278  0.66971989     0.15250
C3513       C  0.84701823  0.36268720  0.66938605     0.36900
C3514       C  0.78689332  0.39154035  0.59849295     0.36810
N3515       N  0.85784754  0.36049950  0.68595161    -0.43440
N3516       N  0.77500532  0.40004039  0.58498358    -0.43440
C3517       C  0.70631515  0.38804316  0.63490947     0.00150
C3518       C  0.69442335  0.40903420  0.63507128    -0.11730
C3519       C  0.67059334  0.40985843  0.63306326     0.02380
C3520       C  0.65807070  0.38973975  0.62789697     0.00060
C3521       C  0.67033381  0.36917905  0.62420224    -0.11670
C3522       C  0.69425704  0.36806291  0.62820847     0.02270
H3523       H  0.70357141  0.42470096  0.63942583     0.15250
H3524       H  0.66091656  0.35354238  0.62047206     0.15250
C3525       C  0.70550312  0.34601680  0.62737587     0.36900
C3526       C  0.65963354  0.43143163  0.63845168     0.36810
N3527       N  0.71453842  0.32832161  0.62667628    -0.43440
N3528       N  0.65183415  0.44922730  0.64265529    -0.43440
C3529       C  0.86394912  0.45481948  0.63323907     0.00150
C3530       C  0.86596196  0.44536174  0.61106842    -0.11730
C3531       C  0.86919568  0.42155920  0.60815470     0.02380
C3532       C  0.86953136  0.40697846  0.62757025     0.00060
C3533       C  0.86953326  0.41678341  0.64957978    -0.11670
C3534       C  0.86784519  0.44048294  0.65251419     0.02270
H3535       H  0.86349087  0.45623510  0.59611697     0.15250
H3536       H  0.86971065  0.40583646  0.66465401     0.15250
C3537       C  0.86878739  0.44957362  0.67566541     0.36900
C3538       C  0.87080579  0.41227951  0.58519709     0.36810
N3539       N  0.86953030  0.45687510  0.69418250    -0.43440
N3540       N  0.87218721  0.40475079  0.56681328    -0.43440
C3541       C  0.86016670  0.54181193  0.62338782     0.00150
C3542       C  0.88120537  0.55068882  0.63110980    -0.11730
C3543       C  0.88507367  0.57454139  0.63142130     0.02380
C3544       C  0.86745562  0.58983631  0.62454891     0.00060
C3545       C  0.84762146  0.58049491  0.61447213    -0.11670
C3546       C  0.84413656  0.55685157  0.61325557     0.02270
H3547       H  0.89377186  0.53921580  0.63871554     0.15250
H3548       H  0.83360115  0.59138420  0.60957905     0.15250
C3549       C  0.82261320  0.54850986  0.60403511     0.36900
C3550       C  0.90684722  0.58287637  0.63981668     0.36810
N3551       N  0.80534294  0.54185011  0.59675429    -0.43440
N3552       N  0.92445583  0.58937668  0.64639428    -0.43440
C3553       C  0.62662990  0.38574283  0.70633521     0.00150
C3554       C  0.61473773  0.40295208  0.69455041    -0.11730
C3555       C  0.61559740  0.40454088  0.67054593     0.02380
C3556       C  0.62625586  0.38687209  0.65740989     0.00060
C3557       C  0.63481096  0.36761933  0.66949203    -0.11670
C3558       C  0.63578459  0.36729590  0.69368158     0.02270
H3559       H  0.60795287  0.41731905  0.70437715     0.15250
H3560       H  0.64273959  0.35367977  0.66002693     0.15250
C3561       C  0.64845711  0.34923541  0.70499809     0.36900
C3562       C  0.60856588  0.42641692  0.66152122     0.36810
N3563       N  0.65870577  0.33481612  0.71408963    -0.43440
N3564       N  0.60282809  0.44482791  0.65666226    -0.43440
C3565       C  0.63295473  0.38213853  0.79383648     0.00150
C3566       C  0.64983665  0.37156725  0.80756129    -0.11730
C3567       C  0.64692119  0.36938163  0.83149748     0.02380
C3568       C  0.62712327  0.37860741  0.84211473     0.00060
C3569       C  0.60953093  0.38738514  0.82799917    -0.11670
C3570       C  0.61215125  0.38890778  0.80410413     0.02270
H3571       H  0.66585340  0.36614426  0.79970784     0.15250
H3572       H  0.59389775  0.39383966  0.83576645     0.15250
C3573       C  0.59397737  0.39918303  0.79069520     0.36900
C3574       C  0.66463582  0.35807742  0.84463789     0.36810
N3575       N  0.57937769  0.40732383  0.77991146    -0.43440
N3576       N  0.67877920  0.34856546  0.85490312    -0.43440
C3577       C  0.63613370  0.45698536  0.87359377     0.00150
C3578       C  0.65382262  0.44158048  0.87927245    -0.11730
C3579       C  0.65093370  0.41798817  0.87665997     0.02380
C3580       C  0.62879704  0.40878121  0.87279256     0.00060
C3581       C  0.61014472  0.42413374  0.87092484    -0.11670
C3582       C  0.61379264  0.44810404  0.87026250     0.02270
H3583       H  0.67103336  0.44818047  0.88221270     0.15250
H3584       H  0.59302473  0.41741537  0.86805222     0.15250
C3585       C  0.59493069  0.46286368  0.86393320     0.36900
C3586       C  0.67152961  0.40413889  0.87648344     0.36810
N3587       N  0.57978471  0.47465557  0.85873956    -0.43440
N3588       N  0.68851839  0.39381942  0.87685242    -0.43440
C3589       C  0.63372713  0.54529085  0.86473954     0.00150
C3590       C  0.63165840  0.55889670  0.84484358    -0.11730
C3591       C  0.63035292  0.58281102  0.84613581     0.02380
C3592       C  0.62878558  0.59377159  0.86776468     0.00060
C3593       C  0.62750379  0.57995192  0.88763706    -0.11670
C3594       C  0.63063618  0.55593280  0.88636316     0.02270
H3595       H  0.63351466  0.55091875  0.82805376     0.15250
H3596       H  0.62572363  0.58805999  0.90431283     0.15250
C3597       C  0.63269650  0.54302548  0.90744770     0.36900
C3598       C  0.63278481  0.59544101  0.82491232     0.36810
N3599       N  0.63442511  0.53267841  0.92437215    -0.43440
N3600       N  0.63490355  0.60491032  0.80752560    -0.43440
C3601       C  0.79202547  0.61553241  0.86427221     0.00150
C3602       C  0.80222738  0.63726597  0.86720030    -0.11730
C3603       C  0.82616127  0.63932876  0.87081161     0.02380
C3604       C  0.84022968  0.61953700  0.87071826     0.00060
C3605       C  0.82960097  0.59798129  0.86983504    -0.11670
C3606       C  0.80582285  0.59579788  0.86767436     0.02270
H3607       H  0.79186575  0.65259731  0.86510192     0.15250
H3608       H  0.83996229  0.58264006  0.86924577     0.15250
C3609       C  0.79618892  0.57288946  0.86737557     0.36900
C3610       C  0.83615121  0.66187919  0.87309552     0.36810
N3611       N  0.78852298  0.55454251  0.86706735    -0.43440
N3612       N  0.84426594  0.67992239  0.87506585    -0.43440
C3613       C  0.70460077  0.62679797  0.86001538     0.00150
C3614       C  0.69637958  0.62092870  0.88197858    -0.11730
C3615       C  0.67263518  0.62143226  0.88678412     0.02380
C3616       C  0.65675276  0.62716737  0.86924899     0.00060
C3617       C  0.66541769  0.63565528  0.84840517    -0.11670
C3618       C  0.68898973  0.63608734  0.84389076     0.02270
H3619       H  0.70821170  0.61424753  0.89474877     0.15250
H3620       H  0.65384520  0.63987340  0.83463121     0.15250
C3621       C  0.69660301  0.64394945  0.82154346     0.36900
C3622       C  0.66495555  0.61534783  0.90957719     0.36810
N3623       N  0.70273877  0.65011957  0.80362675    -0.43440
N3624       N  0.65895114  0.61075710  0.92800789    -0.43440
C3625       C  0.87190948  0.61827031  0.84104036     0.00150
C3626       C  0.86720852  0.63672491  0.82606726    -0.11730
C3627       C  0.86716315  0.63356800  0.80205504     0.02380
C3628       C  0.87384810  0.61221404  0.79278672     0.00060
C3629       C  0.88219851  0.59525267  0.80769960    -0.11670
C3630       C  0.87896064  0.59710134  0.83135623     0.02270
H3631       H  0.86143451  0.65295547  0.83310758     0.15250
H3632       H  0.88703314  0.57867453  0.80059016     0.15250
C3633       C  0.87868606  0.57570343  0.84382490     0.36900
C3634       C  0.85776910  0.65140747  0.78761666     0.36810
N3635       N  0.87825598  0.55786127  0.85261689    -0.43440
N3636       N  0.85009511  0.66566486  0.77605444    -0.43440
C3637       C  0.86355375  0.61332738  0.70516620     0.00150
C3638       C  0.84349105  0.61258817  0.69178947    -0.11730
C3639       C  0.84449235  0.61343230  0.66792565     0.02380
C3640       C  0.86538146  0.61885460  0.65678651     0.00060
C3641       C  0.88485597  0.62350046  0.67038300    -0.11670
C3642       C  0.88432332  0.61994425  0.69442313     0.02270
H3643       H  0.82718297  0.60847806  0.69989170     0.15250
H3644       H  0.90096311  0.62772537  0.66203477     0.15250
C3645       C  0.90555273  0.62112671  0.70714577     0.36900
C3646       C  0.82400575  0.60666167  0.65561174     0.36810
N3647       N  0.92261718  0.62204692  0.71732960    -0.43440
N3648       N  0.80721562  0.60104335  0.64653833    -0.43440
C3649       C  0.62594708  0.90784768  0.36982596     0.00150
C3650       C  0.60696026  0.92273663  0.36891369    -0.11730
C3651       C  0.60998635  0.94657400  0.36693002     0.02380
C3652       C  0.63236899  0.95572158  0.36612884     0.00060
C3653       C  0.65108308  0.94111905  0.37064052    -0.11670
C3654       C  0.64814646  0.91734539  0.37208406     0.02270
H3655       H  0.58978907  0.91565746  0.36813188     0.15250
H3656       H  0.66836884  0.94813074  0.37060802     0.15250
C3657       C  0.66843996  0.90321031  0.37391931     0.36900
C3658       C  0.59006576  0.96093508  0.36363761     0.36810
N3659       N  0.68495371  0.89221912  0.37534055    -0.43440
N3660       N  0.57408062  0.97248956  0.36113662    -0.43440
C3661       C  0.62513045  0.87747352  0.33898387     0.00150
C3662       C  0.64698372  0.87090003  0.33124689    -0.11730
C3663       C  0.65229712  0.86991435  0.30790982     0.02380
C3664       C  0.63659347  0.87851557  0.29155806     0.00060
C3665       C  0.61421967  0.88403713  0.29883831    -0.11670
C3666       C  0.60827893  0.88311340  0.32236582     0.02270
H3667       H  0.66071635  0.86819216  0.34338830     0.15250
H3668       H  0.60186542  0.89043651  0.28642631     0.15250
C3669       C  0.58520094  0.88912228  0.32906570     0.36900
C3670       C  0.67469299  0.86144433  0.30124158     0.36810
N3671       N  0.56660422  0.89386889  0.33428349    -0.43440
N3672       N  0.69256535  0.85459735  0.29583278    -0.43440
C3673       C  0.87850631  0.63460488  0.34107012     0.00150
C3674       C  0.88399085  0.65483985  0.32927227    -0.11730
C3675       C  0.88606881  0.65522259  0.30540269     0.02380
C3676       C  0.88553586  0.63442781  0.29287539     0.00060
C3677       C  0.87882551  0.61420785  0.30431080    -0.11670
C3678       C  0.87485697  0.61429128  0.32828038     0.02270
H3679       H  0.88757949  0.67037249  0.33883091     0.15250
H3680       H  0.87835077  0.59812688  0.29490992     0.15250
C3681       C  0.86910777  0.59304444  0.33968215     0.36900
C3682       C  0.89067943  0.67699438  0.29431634     0.36810
N3683       N  0.86447071  0.57605112  0.34892390    -0.43440
N3684       N  0.89435502  0.69442884  0.28546660    -0.43440
C3685       C  0.90576102  0.63540191  0.37470044     0.00150
C3686       C  0.91968530  0.61600057  0.37078560    -0.11730
C3687       C  0.94380692  0.61772696  0.37081592     0.02380
C3688       C  0.95437193  0.63895548  0.37572180     0.00060
C3689       C  0.94050762  0.65747834  0.38246203    -0.11670
C3690       C  0.91653525  0.65623892  0.38107215     0.02270
H3691       H  0.91172840  0.59998970  0.36556414     0.15250
H3692       H  0.94854186  0.67399901  0.38571992     0.15250
C3693       C  0.90427755  0.67769357  0.38231697     0.36900
C3694       C  0.95721657  0.59832668  0.36317331     0.36810
N3695       N  0.89567480  0.69560270  0.38266320    -0.43440
N3696       N  0.96799049  0.58281884  0.35694094    -0.43440
C3697       C  0.62238034  0.70715182  0.39200867     0.00150
C3698       C  0.61354958  0.69227386  0.40875775    -0.11730
C3699       C  0.61426710  0.66843748  0.40584248     0.02380
C3700       C  0.62205510  0.65891665  0.38481621     0.00060
C3701       C  0.62831661  0.67409144  0.36697806    -0.11670
C3702       C  0.62914402  0.69796821  0.37058831     0.02270
H3703       H  0.60877190  0.69924963  0.42542104     0.15250
H3704       H  0.63476013  0.66717574  0.35091419     0.15250
C3705       C  0.63966410  0.71225686  0.35321560     0.36900
C3706       C  0.61066455  0.65492307  0.42626550     0.36810
N3707       N  0.64830898  0.72367219  0.33938579    -0.43440
N3708       N  0.60819543  0.64559442  0.44366959    -0.43440
C3709       C  0.62561947  0.79388924  0.38546757     0.00150
C3710       C  0.60465111  0.80500175  0.38970675    -0.11730
C3711       C  0.60199497  0.82851626  0.38471976     0.02380
C3712       C  0.62049884  0.84123975  0.37548753     0.00060
C3713       C  0.64025396  0.82906932  0.36854647    -0.11670
C3714       C  0.64300247  0.80577367  0.37356819     0.02270
H3715       H  0.59106698  0.79585019  0.39860378     0.15250
H3716       H  0.65510433  0.83801901  0.36225750     0.15250
C3717       C  0.66486938  0.79505641  0.36858165     0.36900
C3718       C  0.58076029  0.83970160  0.39086133     0.36810
N3719       N  0.68242430  0.78653063  0.36474902    -0.43440
N3720       N  0.56363848  0.84861725  0.39561980    -0.43440
C3721       C  0.83835266  0.63472901  0.37383189     0.00150
C3722       C  0.82412778  0.61760362  0.38345904    -0.11730
C3723       C  0.80018720  0.62042294  0.38467402     0.02380
C3724       C  0.78995260  0.64013324  0.37506639     0.00060
C3725       C  0.80369173  0.65532254  0.36238463    -0.11670
C3726       C  0.82765731  0.65334400  0.36229283     0.02270
H3727       H  0.83190327  0.60309351  0.39218518     0.15250
H3728       H  0.79583096  0.67061804  0.35513561     0.15250
C3729       C  0.84011945  0.67280735  0.35342007     0.36900
C3730       C  0.78695261  0.60443548  0.39828722     0.36810
N3731       N  0.84882382  0.68928491  0.34645958    -0.43440
N3732       N  0.77637419  0.59167928  0.40930508    -0.43440
C3733       C  0.70314255  0.63763128  0.38773532     0.00150
C3734       C  0.69298541  0.63362278  0.36615923    -0.11730
C3735       C  0.66912538  0.63005613  0.36432024     0.02380
C3736       C  0.65519611  0.63122599  0.38417985     0.00060
C3737       C  0.66567520  0.63308908  0.40577658    -0.11670
C3738       C  0.68943762  0.63540562  0.40776031     0.02270
H3739       H  0.70335139  0.63483608  0.35069832     0.15250
H3740       H  0.65514157  0.63362485  0.42116429     0.15250
C3741       C  0.69920726  0.63675472  0.43060600     0.36900
C3742       C  0.65910956  0.62660185  0.34188151     0.36810
N3743       N  0.70698264  0.63787908  0.44890912    -0.43440
N3744       N  0.65101808  0.62372808  0.32391603    -0.43440
C3745       C  0.86011925  0.63561783  0.45528126     0.00150
C3746       C  0.86094876  0.65643172  0.44306825    -0.11730
C3747       C  0.86194111  0.65674385  0.41916700     0.02380
C3748       C  0.86646415  0.63630716  0.40693834     0.00060
C3749       C  0.86968212  0.61581854  0.41950171    -0.11670
C3750       C  0.86576655  0.61517454  0.44349186     0.02270
H3751       H  0.85737879  0.67241698  0.45202309     0.15250
H3752       H  0.87289469  0.59994752  0.41027453     0.15250
C3753       C  0.86570904  0.59328048  0.45508807     0.36900
C3754       C  0.85478158  0.67773433  0.40810272     0.36810
N3755       N  0.86570618  0.57570532  0.46440550    -0.43440
N3756       N  0.84839691  0.69489669  0.40033691    -0.43440
C3757       C  0.85474108  0.62370704  0.54311845     0.00150
C3758       C  0.83684981  0.62083151  0.55914090    -0.11730
C3759       C  0.84043127  0.62545519  0.58229903     0.02380
C3760       C  0.86299245  0.62682912  0.59092836     0.00060
C3761       C  0.88149208  0.62483716  0.57541139    -0.11670
C3762       C  0.87753868  0.62455298  0.55147024     0.02270
H3763       H  0.81927211  0.61928397  0.55304832     0.15250
H3764       H  0.89895662  0.62538178  0.58183706     0.15250
C3765       C  0.89688930  0.62703094  0.53618095     0.36900
C3766       C  0.82044625  0.63060024  0.59613373     0.36810
N3767       N  0.91249091  0.62902731  0.52398651    -0.43440
N3768       N  0.80393624  0.63472834  0.60642896    -0.43440
C3769       C  0.79115191  0.86659573  0.61777250     0.00150
C3770       C  0.80216140  0.86967587  0.59653497    -0.11730
C3771       C  0.82603373  0.87033889  0.59494439     0.02380
C3772       C  0.83960435  0.87171196  0.61508521     0.00060
C3773       C  0.82820417  0.87278688  0.63652452    -0.11670
C3774       C  0.80416887  0.86949466  0.63803560     0.02270
H3775       H  0.79219559  0.86783500  0.58082429     0.15250
H3776       H  0.83828933  0.87380765  0.65218184     0.15250
C3777       C  0.79361037  0.86719851  0.66036050     0.36900
C3778       C  0.83540400  0.86612957  0.57239995     0.36810
N3779       N  0.78506204  0.86541035  0.67825931    -0.43440
N3780       N  0.84119543  0.86231459  0.55373251    -0.43440
C3781       C  0.70314343  0.85921915  0.62730504     0.00150
C3782       C  0.68762754  0.84089967  0.62999724    -0.11730
C3783       C  0.66504461  0.84318272  0.62255555     0.02380
C3784       C  0.65533607  0.86518484  0.62009280     0.00060
C3785       C  0.66987095  0.88442919  0.62269739    -0.11670
C3786       C  0.69391293  0.88155626  0.62479513     0.02270
H3787       H  0.69434476  0.82366030  0.63246909     0.15250
H3788       H  0.66277423  0.90155893  0.62110551     0.15250
C3789       C  0.70856529  0.90139810  0.62260133     0.36900
C3790       C  0.65462274  0.82289612  0.61291529     0.36810
N3791       N  0.72027509  0.91737390  0.62083455    -0.43440
N3792       N  0.64777601  0.80613144  0.60469203    -0.43440
C3793       C  0.86933239  0.70564616  0.61464179     0.00150
C3794       C  0.85252402  0.69491739  0.62808048    -0.11730
C3795       C  0.85240414  0.67102470  0.63121995     0.02380
C3796       C  0.86992205  0.65730380  0.62118401     0.00060
C3797       C  0.88835312  0.66873464  0.61032122    -0.11670
C3798       C  0.88786811  0.69252803  0.60642704     0.02270
H3799       H  0.83817705  0.70506541  0.63435530     0.15250
H3800       H  0.90224338  0.65881277  0.60293156     0.15250
C3801       C  0.90519568  0.70269113  0.59184721     0.36900
C3802       C  0.83284424  0.66180519  0.64319647     0.36810
N3803       N  0.91894176  0.71084634  0.57999062    -0.43440
N3804       N  0.81650859  0.65628631  0.65311578    -0.43440
C3805       C  0.87391528  0.79299620  0.61187997     0.00150
C3806       C  0.88366681  0.80654120  0.59456987    -0.11730
C3807       C  0.88099500  0.83036919  0.59452137     0.02380
C3808       C  0.87129572  0.84164191  0.61392796     0.00060
C3809       C  0.86468512  0.82798181  0.63287497    -0.11670
C3810       C  0.86515077  0.80385900  0.63166933     0.02270
H3811       H  0.88996199  0.79812448  0.57910779     0.15250
H3812       H  0.85735917  0.83608813  0.64797096     0.15250
C3813       C  0.85429125  0.79072560  0.64971520     0.36900
C3814       C  0.88521818  0.84127110  0.57269139     0.36810
N3815       N  0.84545724  0.78020001  0.66411890    -0.43440
N3816       N  0.88885128  0.84840475  0.55443832    -0.43440
C3817       C  0.64552149  0.87006077  0.45151539     0.00150
C3818       C  0.62558612  0.88249146  0.44504870    -0.11730
C3819       C  0.61748439  0.88237900  0.42204867     0.02380
C3820       C  0.63056045  0.87164796  0.40463352     0.00060
C3821       C  0.65138269  0.86170229  0.41067772    -0.11670
C3822       C  0.65748959  0.85837019  0.43341919     0.02270
H3823       H  0.61566699  0.89155705  0.45789976     0.15250
H3824       H  0.66207297  0.85412136  0.39747789     0.15250
C3825       C  0.67402132  0.84006772  0.43630390     0.36900
C3826       C  0.59549687  0.89257210  0.41702155     0.36810
N3827       N  0.68729851  0.82528714  0.43694264    -0.43440
N3828       N  0.57775921  0.90069851  0.41318898    -0.43440
C3829       C  0.63293016  0.87107441  0.53985834     0.00150
C3830       C  0.62101766  0.85298994  0.55039336    -0.11730
C3831       C  0.61739284  0.85256164  0.57433009     0.02380
C3832       C  0.62556226  0.87081837  0.58834887     0.00060
C3833       C  0.63475002  0.89024002  0.57719026    -0.11670
C3834       C  0.63876219  0.89036408  0.55331632     0.02270
H3835       H  0.61670101  0.83797354  0.54019829     0.15250
H3836       H  0.64072590  0.90462169  0.58739029     0.15250
C3837       C  0.65132819  0.90932809  0.54341516     0.36900
C3838       C  0.60728978  0.83195462  0.58356827     0.36810
N3839       N  0.66150508  0.92445034  0.53545158    -0.43440
N3840       N  0.59916733  0.81481405  0.58956623    -0.43440
C3841       C  0.36674404  0.63099132  0.90783699     0.00150
C3842       C  0.35065634  0.64680266  0.91633556    -0.11730
C3843       C  0.34289728  0.64546403  0.93870220     0.02380
C3844       C  0.35685323  0.63554800  0.95600341     0.00060
C3845       C  0.37513824  0.62142901  0.94834766    -0.11670
C3846       C  0.37887916  0.61762785  0.92439138     0.02270
H3847       H  0.34099218  0.65766479  0.90474977     0.15250
H3848       H  0.38556019  0.61231386  0.96078621     0.15250
C3849       C  0.39371749  0.59899576  0.91771060     0.36900
C3850       C  0.31870312  0.65021761  0.94202253     0.36810
N3851       N  0.40556241  0.58384567  0.91264983    -0.43440
N3852       N  0.29928411  0.65350855  0.94467228    -0.43440
C3853       C  0.34092546  0.62808098  0.87288253     0.00150
C3854       C  0.33331286  0.64839975  0.86212261    -0.11730
C3855       C  0.31003803  0.65467161  0.86268121     0.02380
C3856       C  0.29384806  0.64050893  0.87398927     0.00060
C3857       C  0.30090852  0.61884062  0.88184778    -0.11670
C3858       C  0.32421674  0.61255316  0.88131993     0.02270
H3859       H  0.34577830  0.66076226  0.85589578     0.15250
H3860       H  0.28861881  0.60776563  0.89044478     0.15250
C3861       C  0.33102632  0.59121375  0.89198153     0.36900
C3862       C  0.30345806  0.67673135  0.85341057     0.36810
N3863       N  0.33660696  0.57417973  0.90059862    -0.43440
N3864       N  0.29815151  0.69442309  0.84603639    -0.43440
C3865       C  0.36635253  0.90834173  0.63356188     0.00150
C3866       C  0.37151242  0.92167952  0.61394025    -0.11730
C3867       C  0.36871757  0.94584953  0.61410095     0.02380
C3868       C  0.36226599  0.95717388  0.63463565     0.00060
C3869       C  0.36048269  0.94392407  0.65481736    -0.11670
C3870       C  0.36078239  0.91996369  0.65417977     0.02270
H3871       H  0.37584821  0.91306953  0.59798127     0.15250
H3872       H  0.35608178  0.95231270  0.67091862     0.15250
C3873       C  0.35274139  0.90821153  0.67450970     0.36900
C3874       C  0.37059328  0.95823781  0.59269915     0.36810
N3875       N  0.34571025  0.89961053  0.69104444    -0.43440
N3876       N  0.37202187  0.96816132  0.57549365    -0.43440
C3877       C  0.33917431  0.87408069  0.63161989     0.00150
C3878       C  0.33039217  0.86422954  0.65186128    -0.11730
C3879       C  0.30667990  0.86307687  0.65570727     0.02380
C3880       C  0.29134049  0.87168824  0.63900023     0.00060
C3881       C  0.30000183  0.87823711  0.61743873    -0.11670
C3882       C  0.32378308  0.87950240  0.61365385     0.02270
H3883       H  0.34193861  0.85977930  0.66575108     0.15250
H3884       H  0.28832019  0.88477074  0.60444323     0.15250
C3885       C  0.33195202  0.88765992  0.59168238     0.36900
C3886       C  0.29853409  0.85574613  0.67802386     0.36810
N3887       N  0.33839655  0.89406189  0.57395839    -0.43440
N3888       N  0.29198580  0.84999911  0.69593535    -0.43440
C3889       C  0.38371221  0.79391354  0.63303369     0.00150
C3890       C  0.38237381  0.80533579  0.61176578    -0.11730
C3891       C  0.37941704  0.82934977  0.61077326     0.02380
C3892       C  0.37842223  0.84233459  0.63129636     0.00060
C3893       C  0.37763908  0.83060463  0.65238591    -0.11670
C3894       C  0.37960793  0.80664391  0.65335758     0.02270
H3895       H  0.38550589  0.79581180  0.59603399     0.15250
H3896       H  0.37670620  0.84022863  0.66829947     0.15250
C3897       C  0.37940376  0.79561163  0.67564478     0.36900
C3898       C  0.37888978  0.84044486  0.58858649     0.36810
N3899       N  0.37923190  0.78675969  0.69348646    -0.43440
N3900       N  0.37845316  0.84936325  0.57078645    -0.43440
C3901       C  0.39145225  0.70573751  0.63094363     0.00150
C3902       C  0.40067080  0.69115715  0.64791036    -0.11730
C3903       C  0.39841459  0.66755340  0.64672205     0.02380
C3904       C  0.38229114  0.65756568  0.63159432     0.00060
C3905       C  0.37090982  0.67217684  0.61582598    -0.11670
C3906       C  0.37613275  0.69596045  0.61474159     0.02270
H3907       H  0.41146860  0.69802467  0.66148791     0.15250
H3908       H  0.35821384  0.66504003  0.60421374     0.15250
C3909       C  0.36595372  0.70963405  0.59676465     0.36900
C3910       C  0.41508857  0.65435282  0.65952840     0.36810
N3911       N  0.35775329  0.72057727  0.58230297    -0.43440
N3912       N  0.42931775  0.64458287  0.66943072    -0.43440
C3913       C  0.45384094  0.88002267  0.64145833     0.00150
C3914       C  0.43816670  0.88604246  0.65884890    -0.11730
C3915       C  0.41461004  0.88247900  0.65601919     0.02380
C3916       C  0.40581320  0.87615597  0.63427612     0.00060
C3917       C  0.42127357  0.87378628  0.61578876    -0.11670
C3918       C  0.44517324  0.87501080  0.61931887     0.02270
H3919       H  0.44464648  0.88984765  0.67596181     0.15250
H3920       H  0.41483162  0.86900623  0.59898418     0.15250
C3921       C  0.46023277  0.86865127  0.60065277     0.36900
C3922       C  0.40104676  0.88116319  0.67673303     0.36810
N3923       N  0.47228843  0.86351861  0.58566540    -0.43440
N3924       N  0.39133973  0.87931890  0.69401637    -0.43440
C3925       C  0.54098855  0.86937422  0.63428047     0.00150
C3926       C  0.55268288  0.89040854  0.63212305    -0.11730
C3927       C  0.57651058  0.89082332  0.62752100     0.02380
C3928       C  0.58892584  0.87000971  0.62594475     0.00060
C3929       C  0.57666720  0.84935221  0.62606987    -0.11670
C3930       C  0.55293661  0.84888443  0.62906645     0.02270
H3931       H  0.54366505  0.90631538  0.63566015     0.15250
H3932       H  0.58578277  0.83326546  0.62571658     0.15250
C3933       C  0.54155690  0.82678335  0.62888953     0.36900
C3934       C  0.58815612  0.91263558  0.62603677     0.36810
N3935       N  0.53248611  0.80908642  0.62885239    -0.43440
N3936       N  0.59756329  0.93010369  0.62472563    -0.43440
C3937       C  0.37531502  0.63284989  0.70676291     0.00150
C3938       C  0.35632542  0.64167658  0.69486697    -0.11730
C3939       C  0.35385197  0.63798867  0.67117112     0.02380
C3940       C  0.37078875  0.62561568  0.65894766     0.00060
C3941       C  0.38720355  0.61316662  0.67171906    -0.11670
C3942       C  0.38981962  0.61704991  0.69550597     0.02270
H3943       H  0.34477292  0.65344953  0.70356184     0.15250
H3944       H  0.40038253  0.60354646  0.66284358     0.15250
C3945       C  0.40933836  0.60722794  0.70726820     0.36900
C3946       C  0.33537129  0.64942060  0.65919503     0.36810
N3947       N  0.42504815  0.59947354  0.71669133    -0.43440
N3948       N  0.32060029  0.65857509  0.64951959    -0.43440
C3949       C  0.38094186  0.63341139  0.84228335     0.00150
C3950       C  0.36660733  0.62107146  0.82708629    -0.11730
C3951       C  0.36510939  0.62711000  0.80354449     0.02380
C3952       C  0.38026470  0.64387863  0.79426894     0.00060
C3953       C  0.39574003  0.65447260  0.80963481    -0.11670
C3954       C  0.39426018  0.65144704  0.83317299     0.02270
H3955       H  0.35611016  0.60717614  0.83369417     0.15250
H3956       H  0.40890293  0.66616177  0.80362614     0.15250
C3957       C  0.40518491  0.66871907  0.84728191     0.36900
C3958       C  0.34733117  0.61646661  0.78997858     0.36810
N3959       N  0.41365752  0.68327827  0.85787611    -0.43440
N3960       N  0.33287166  0.60791265  0.77931775    -0.43440
C3961       C  0.40822855  0.62262066  0.87393478     0.00150
C3962       C  0.42071324  0.63936878  0.88611156    -0.11730
C3963       C  0.44431355  0.64259829  0.88161621     0.02380
C3964       C  0.45571399  0.62825908  0.86563643     0.00060
C3965       C  0.44417367  0.60899714  0.85706387    -0.11670
C3966       C  0.42067067  0.60596900  0.86127865     0.02270
H3967       H  0.41154120  0.65199903  0.89629289     0.15250
H3968       H  0.45296865  0.59751845  0.84528582     0.15250
C3969       C  0.40902679  0.58703039  0.85024715     0.36900
C3970       C  0.45588617  0.66214706  0.89157284     0.36810
N3971       N  0.39962623  0.57189185  0.84141570    -0.43440
N3972       N  0.46519928  0.67784597  0.89947183    -0.43440
C3973       C  0.54239157  0.62528160  0.85498566     0.00150
C3974       C  0.54980257  0.62721058  0.87793939    -0.11730
C3975       C  0.57337985  0.62712494  0.88331305     0.02380
C3976       C  0.58985835  0.62581999  0.86552560     0.00060
C3977       C  0.58231147  0.62089680  0.84316736    -0.11670
C3978       C  0.55890300  0.62010016  0.83786010     0.02270
H3979       H  0.53735720  0.63041799  0.89144973     0.15250
H3980       H  0.59462214  0.61925891  0.82939038     0.15250
C3981       C  0.55234515  0.61538661  0.81432761     0.36900
C3982       C  0.58029833  0.62890913  0.90707155     0.36810
N3983       N  0.54713336  0.61173113  0.79545269    -0.43440
N3984       N  0.58582567  0.62999891  0.92617619    -0.43440
C3985       C  0.61521888  0.86582292  0.79201920     0.00150
C3986       C  0.63635299  0.86456303  0.80360337    -0.11730
C3987       C  0.63741884  0.86758255  0.82764974     0.02380
C3988       C  0.61700706  0.87097051  0.84040885     0.00060
C3989       C  0.59635212  0.87408591  0.82842370    -0.11670
C3990       C  0.59547715  0.87249164  0.80449036     0.02270
H3991       H  0.65167442  0.85967024  0.79418433     0.15250
H3992       H  0.58047917  0.87645778  0.83770157     0.15250
C3993       C  0.57357842  0.87582670  0.79321684     0.36900
C3994       C  0.65941389  0.86605524  0.83896463     0.36810
N3995       N  0.55605225  0.87849536  0.78419286    -0.43440
N3996       N  0.67708393  0.86492958  0.84803048    -0.43440
C3997       C  0.62331562  0.85979093  0.70414973     0.00150
C3998       C  0.62898376  0.84194595  0.68892845    -0.11730
C3999       C  0.62514219  0.84411809  0.66533589     0.02380
C4000       C  0.62034839  0.86588686  0.65567007     0.00060
C4001       C  0.61829133  0.88477822  0.67073645    -0.11670
C4002       C  0.61875020  0.88173514  0.69483767     0.02270
H4003       H  0.63227010  0.82493942  0.69589550     0.15250
H4004       H  0.61436643  0.90157992  0.66379298     0.15250
C4005       C  0.61217828  0.90069585  0.70940450     0.36900
C4006       C  0.62147936  0.82296440  0.65302574     0.36810
N4007       N  0.60678137  0.91588626  0.72106525    -0.43440
N4008       N  0.61769168  0.80539464  0.64450897    -0.43440
C4009       C  0.60793156  0.70789332  0.86818404     0.00150
C4010       C  0.61352927  0.69612065  0.84786687    -0.11730
C4011       C  0.61668248  0.67233491  0.84767351     0.02380
C4012       C  0.61671740  0.65980605  0.86857076     0.00060
C4013       C  0.61392900  0.67210112  0.88929599    -0.11670
C4014       C  0.60881302  0.69580777  0.88921143     0.02270
H4015       H  0.61289963  0.70526169  0.83158108     0.15250
H4016       H  0.61377257  0.66284443  0.90546076     0.15250
C4017       C  0.60211324  0.70670010  0.91047441     0.36900
C4018       C  0.61736825  0.66143442  0.82539539     0.36810
N4019       N  0.59651019  0.71540346  0.92748297    -0.43440
N4020       N  0.61787238  0.65348426  0.80714433    -0.43440
C4021       C  0.60322633  0.79575006  0.87711897     0.00150
C4022       C  0.58591424  0.81194479  0.88167016    -0.11730
C4023       C  0.58966104  0.83538057  0.87821194     0.02380
C4024       C  0.61211234  0.84370273  0.87414737     0.00060
C4025       C  0.63027280  0.82769981  0.87362882    -0.11670
C4026       C  0.62595376  0.80384548  0.87429941     0.02270
H4027       H  0.56839018  0.80598078  0.88405997     0.15250
H4028       H  0.64762513  0.83367759  0.87068358     0.15250
C4029       C  0.64471835  0.78829356  0.86984545     0.36900
C4030       C  0.56946919  0.84916165  0.87434571     0.36810
N4031       N  0.65982734  0.77586919  0.86627369    -0.43440
N4032       N  0.55261926  0.85890251  0.87029033    -0.43440
loop_ 
_geom_bond_atom_site_label_1 
_geom_bond_atom_site_label_2 
_geom_bond_distance 
_geom_bond_site_symmetry_2 
_ccdc_geom_bond_type 
O1           Mg3   2.133   1_554  S
O1           Mg9   2.141       .  S
O1           C36   1.236       .  S
C2           O15   1.236       .  S
C2           O39   1.273       .  A
C2           H41   1.081       .  S
Mg3          O32   2.144       .  S
Mg3          O47   2.293       .  S
Mg3          O43   2.243       .  S
Mg3          O14   2.302       .  S
O4          Mg46   2.135       .  S
O4          Mg29   2.152       .  S
O4           C25   1.236       .  S
O5           C36   1.272       .  A
O5          Mg29   2.310       .  S
C6            O8   1.268       .  A
C6           O20   1.277       .  A
C6         C1224   1.474       .  S
O7           C35   1.269       .  A
O7           Mg9   2.296   1_556  S
O8          Mg40   2.243       .  S
Mg9          O15   2.142       .  S
Mg9          O23   2.253       .  S
Mg9          O11   2.282       .  S
C10          O48   1.270       .  A
C10          O16   1.271   1_556  A
C10        C1215   1.475       .  S
O11          C18   1.270       .  A
H12          C25   1.081       .  S
C13          O27   1.237       .  S
C13          O28   1.272       .  A
C13          H38   1.081       .  S
O14          C37   1.270       .  A
O15         Mg29   2.125       .  S
O16         Mg46   2.296       .  S
C17          O30   1.267       .  A
C17          O22   1.269       .  A
C17        C1260   1.468       .  S
C18          O45   1.268       .  A
C18        C1233   1.470       .  S
Mg19         O26   2.140       .  S
Mg19         O27   2.138       .  S
Mg19         O20   2.323       .  S
Mg19         O21   2.316   1_556  S
Mg19         O48   2.275       .  S
O21          C25   1.272       .  A
O22         Mg29   2.286       .  S
O23          C42   1.269       .  A
O24          C44   1.272       .  A
O24         Mg40   2.301       .  S
O26         Mg40   2.136       .  S
O26          C37   1.236       .  S
O27         Mg46   2.145   1_556  S
O28         Mg40   2.309       .  S
Mg29         O45   2.259       .  S
O30         Mg46   2.251       .  S
H31          C36   1.081       .  S
O32         Mg40   2.134       .  S
O32          C35   1.235       .  S
H33          C35   1.081       .  S
H34          C37   1.081       .  S
O39         Mg46   2.318       .  S
C42          O47   1.272   1_554  A
C42        C1242   1.466       .  S
O43          C44   1.268       .  A
C44        C1251   1.464       .  S
O49         Mg51   2.137       .  S
O49         Mg57   2.160       .  S
O49          C84   1.234       .  S
C50          O63   1.234       .  S
C50          O87   1.268       .  A
C50          H89   1.081       .  S
Mg51         O80   2.170       .  S
Mg51         O95   2.291       .  S
Mg51         O91   2.236       .  S
Mg51         O62   2.286       .  S
O52         Mg94   2.162       .  S
O52         Mg77   2.132       .  S
O52          C73   1.234       .  S
O53          C84   1.268       .  A
O53         Mg77   2.296       .  S
C54          O56   1.272       .  A
C54          O68   1.274       .  A
C54         C896   1.478       .  S
O55          C83   1.267       .  A
O55         Mg57   2.293       .  S
O56         Mg88   2.256       .  S
Mg57         O63   2.128       .  S
Mg57         O71   2.226       .  S
Mg57         O59   2.279       .  S
C58          O96   1.271       .  A
C58          O64   1.272       .  A
C58         C887   1.474       .  S
O59          C66   1.271       .  A
H60          C73   1.081       .  S
C61          O75   1.233       .  S
C61          O76   1.266       .  A
C61          H86   1.081       .  S
O62          C85   1.266       .  A
O63         Mg77   2.157       .  S
O64         Mg94   2.280       .  S
C65          O78   1.270       .  A
C65          O70   1.272       .  A
C65         C923   1.472       .  S
C66          O93   1.270       .  A
C66         C932   1.474       .  S
Mg67         O74   2.128       .  S
Mg67         O75   2.157       .  S
Mg67         O68   2.287       .  S
Mg67         O69   2.290       .  S
Mg67         O96   2.242       .  S
O69          C73   1.268       .  A
O70         Mg77   2.279       .  S
O71          C90   1.268       .  A
O72          C92   1.272       .  A
O72         Mg88   2.277       .  S
O74         Mg88   2.161       .  S
O74          C85   1.233       .  S
O75         Mg94   2.129       .  S
O76         Mg88   2.286       .  S
Mg77         O93   2.247       .  S
O78         Mg94   2.240       .  S
H79          C84   1.081       .  S
O80         Mg88   2.147       .  S
O80          C83   1.234       .  S
H81          C83   1.081       .  S
H82          C85   1.081       .  S
O87         Mg94   2.290       .  S
C90          O95   1.273       .  A
C90         C914   1.472       .  S
O91          C92   1.271       .  A
C92         C905   1.473       .  S
O97         Mg99   2.158       .  S
O97        Mg105   2.162       .  S
O97         C132   1.234       .  S
C98         O111   1.234       .  S
C98         O135   1.268       .  A
C98         H137   1.081       .  S
Mg99        O128   2.169       .  S
Mg99        O143   2.342       .  S
Mg99        O139   2.265       .  S
Mg99        O110   2.283       .  S
O100       Mg142   2.163       .  S
O100       Mg125   2.128       .  S
O100        C121   1.235       .  S
O101        C132   1.269       .  A
O101       Mg125   2.299       .  S
C102        O104   1.276       .  A
C102        O116   1.269       .  A
C102        C816   1.473       .  S
O103        C131   1.267       .  A
O103       Mg105   2.289       .  S
O104       Mg136   2.268       .  S
Mg105       O111   2.142       .  S
Mg105       O119   2.235       .  S
Mg105       O107   2.301       .  S
C106        O144   1.268       .  A
C106        O112   1.271       .  A
C106        C807   1.473       .  S
O107        C114   1.274       .  A
H108        C121   1.081       .  S
C109        O123   1.235       .  S
C109        O124   1.268       .  A
C109        H134   1.081       .  S
O110        C133   1.266       .  A
O111       Mg125   2.162       .  S
O112       Mg142   2.285       .  S
C113        O126   1.267       .  A
C113        O118   1.274       .  A
C113        C782   1.472       .  S
C114        O141   1.270       .  A
C114        C771   1.477       .  S
Mg115       O122   2.128       .  S
Mg115       O123   2.153       .  S
Mg115       O116   2.266       .  S
Mg115       O117   2.286       .  S
Mg115       O144   2.230       .  S
O117        C121   1.268       .  A
O118       Mg125   2.304       .  S
O119        C138   1.271       .  A
O120        C140   1.277       .  A
O120       Mg136   2.321       .  S
O122       Mg136   2.157       .  S
O122        C133   1.233       .  S
O123       Mg142   2.115       .  S
O124       Mg136   2.285       .  S
Mg125       O141   2.233       .  S
O126       Mg142   2.209       .  S
H127        C132   1.081       .  S
O128       Mg136   2.153       .  S
O128        C131   1.234       .  S
H129        C131   1.081       .  S
H130        C133   1.081       .  S
O135       Mg142   2.293       .  S
C138        O143   1.279       .  A
C138        C789   1.485       .  S
O139        C140   1.279       .  A
C140        C798   1.481       .  S
O145       Mg147   2.134       .  S
O145       Mg153   2.136       .  S
O145        C180   1.236       .  S
C146        O159   1.235       .  S
C146        O183   1.271       .  A
C146        H185   1.081       .  S
Mg147       O176   2.145       .  S
Mg147       O191   2.297       .  S
Mg147       O187   2.234       .  S
Mg147       O158   2.305   1_554  S
O148       Mg190   2.134       .  S
O148       Mg173   2.150   1_556  S
O148        C169   1.235       .  S
O149        C180   1.273       .  A
O149       Mg173   2.317       .  S
C150        O152   1.267       .  A
C150        O164   1.273       .  A
C150        C981   1.466       .  S
O151        C179   1.269       .  A
O151       Mg153   2.302       .  S
O152       Mg184   2.242       .  S
Mg153       O159   2.156       .  S
Mg153       O167   2.227       .  S
Mg153       O155   2.257       .  S
C154        O192   1.270       .  A
C154        O160   1.278       .  A
C154        C963   1.477       .  S
O155        C162   1.261       .  A
H156        C169   1.081       .  S
C157        O171   1.236       .  S
C157        O172   1.272       .  A
C157        H182   1.081       .  S
O158        C181   1.269       .  A
O159       Mg173   2.125       .  S
O160       Mg190   2.342       .  S
C161        O174   1.275   1_554  A
C161        O166   1.269       .  A
C161        C954   1.476       .  S
C162        O189   1.265       .  A
C162        C990   1.458       .  S
Mg163       O170   2.148       .  S
Mg163       O171   2.149       .  S
Mg163       O164   2.300       .  S
Mg163       O165   2.304       .  S
Mg163       O192   2.247       .  S
O165        C169   1.270       .  A
O166       Mg173   2.312       .  S
O167        C186   1.263       .  A
O168        C188   1.273   1_556  A
O168       Mg184   2.300       .  S
O170       Mg184   2.141       .  S
O170        C181   1.234       .  S
O171       Mg190   2.154       .  S
O172       Mg184   2.308       .  S
Mg173       O189   2.228       .  S
O174       Mg190   2.274       .  S
H175        C180   1.081       .  S
O176       Mg184   2.138   1_554  S
O176        C179   1.234       .  S
H177        C179   1.081       .  S
H178        C181   1.081       .  S
O183       Mg190   2.316   1_554  S
C186        O191   1.271       .  A
C186        C945   1.465       .  S
O187        C188   1.267       .  A
C188        C972   1.467       .  S
O193       Mg195   2.145       .  S
O193       Mg201   2.160       .  S
O193        C228   1.235       .  S
C194        O207   1.232       .  S
C194        O231   1.265       .  A
C194        H233   1.081       .  S
Mg195       O224   2.154       .  S
Mg195       O239   2.300       .  S
Mg195       O235   2.258       .  S
Mg195       O206   2.296       .  S
O196       Mg238   2.168       .  S
O196       Mg221   2.120       .  S
O196        C217   1.234       .  S
O197        C228   1.268       .  A
O197       Mg221   2.292       .  S
C198        O200   1.270       .  A
C198        O212   1.265       .  A
C198       C1170   1.468       .  S
O199        C227   1.270       .  A
O199       Mg201   2.296       .  S
O200       Mg232   2.251       .  S
Mg201       O207   2.127       .  S
Mg201       O215   2.235       .  S
Mg201       O203   2.300       .  S
C202        O240   1.267       .  A
C202        O208   1.269       .  A
C202       C1188   1.472       .  S
O203        C210   1.275       .  A
H204        C217   1.081       .  S
C205        O219   1.234       .  S
C205        O220   1.267       .  A
C205        H230   1.081       .  S
O206        C229   1.268       .  A
O207       Mg221   2.160       .  S
O208       Mg238   2.281       .  S
C209        O222   1.269       .  A
C209        O214   1.274       .  A
C209       C1197   1.472       .  S
C210        O237   1.270       .  A
C210       C1161   1.474       .  S
Mg211       O218   2.149       .  S
Mg211       O219   2.159       .  S
Mg211       O212   2.271       .  S
Mg211       O213   2.276       .  S
Mg211       O240   2.202       .  S
O213        C217   1.265       .  A
O214       Mg221   2.295       .  S
O215        C234   1.270       .  A
O216        C236   1.280       .  A
O216       Mg232   2.348       .  S
O218       Mg232   2.152       .  S
O218        C229   1.234       .  S
O219       Mg238   2.129       .  S
O220       Mg232   2.290       .  S
Mg221       O237   2.227       .  S
O222       Mg238   2.213       .  S
H223        C228   1.081       .  S
O224       Mg232   2.139       .  S
O224        C227   1.235       .  S
H225        C227   1.081       .  S
H226        C229   1.081       .  S
O231       Mg238   2.280       .  S
C234        O239   1.275       .  A
C234       C1206   1.477       .  S
O235        C236   1.274       .  A
C236       C1179   1.489       .  S
O241       Mg243   2.138       .  S
O241       Mg249   2.145       .  S
O241        C276   1.235       .  S
C242        O255   1.236       .  S
C242        O279   1.272       .  A
C242        H281   1.081       .  S
Mg243       O272   2.142       .  S
Mg243       O287   2.286       .  S
Mg243       O283   2.215       .  S
Mg243       O254   2.300   1_565  S
O244       Mg286   2.133       .  S
O244       Mg269   2.171   1_545  S
O244        C265   1.235       .  S
O245        C276   1.268       .  A
O245       Mg269   2.293       .  S
C246        O248   1.268       .  A
C246        O260   1.274       .  A
C246       C1584   1.469       .  S
O247        C275   1.268       .  A
O247       Mg249   2.297       .  S
O248       Mg280   2.234       .  S
Mg249       O255   2.132       .  S
Mg249       O263   2.230       .  S
Mg249       O251   2.332       .  S
C250        O288   1.270       .  A
C250        O256   1.276       .  A
C250       C1539   1.481       .  S
O251        C258   1.275       .  A
H252        C265   1.081       .  S
C253        O267   1.236       .  S
C253        O268   1.272       .  A
C253        H278   1.081       .  S
O254        C277   1.271       .  A
O255       Mg269   2.133       .  S
O256       Mg286   2.341       .  S
C257        O270   1.270   1_565  A
C257        O262   1.261       .  A
C257       C1566   1.456       .  S
C258        O285   1.266       .  A
C258       C1575   1.476       .  S
Mg259       O266   2.142       .  S
Mg259       O267   2.141       .  S
Mg259       O260   2.317       .  S
Mg259       O261   2.315       .  S
Mg259       O288   2.241       .  S
O261        C265   1.272       .  A
O262       Mg269   2.255       .  S
O263        C282   1.271       .  A
O264        C284   1.273       .  A
O264       Mg280   2.309       .  S
O266       Mg280   2.143       .  S
O266        C277   1.236       .  S
O267       Mg286   2.152       .  S
O268       Mg280   2.311       .  S
Mg269       O285   2.239       .  S
O270       Mg286   2.254       .  S
H271        C276   1.081       .  S
O272       Mg280   2.131   1_565  S
O272        C275   1.234       .  S
H273        C275   1.081       .  S
H274        C277   1.081       .  S
O279       Mg286   2.318   1_565  S
C282        O287   1.267       .  A
C282       C1557   1.458       .  S
O283        C284   1.265   1_565  A
C284       C1550   1.464       .  S
O289       Mg291   2.127       .  S
O289       Mg297   2.164       .  S
O289        C324   1.234       .  S
C290        O303   1.235       .  S
C290        O327   1.268       .  A
C290        H329   1.081       .  S
Mg291       O320   2.165       .  S
Mg291       O335   2.297       .  S
Mg291       O331   2.225       .  S
Mg291       O302   2.288       .  S
O292       Mg334   2.156       .  S
O292       Mg317   2.141       .  S
O292        C313   1.234       .  S
O293        C324   1.267       .  A
O293       Mg317   2.285       .  S
C294        O296   1.269       .  A
C294        O308   1.274       .  A
C294        C867   1.474       .  S
O295        C323   1.266       .  A
O295       Mg297   2.286       .  S
O296       Mg328   2.240       .  S
Mg297       O303   2.131       .  S
Mg297       O311   2.224       .  S
Mg297       O299   2.283       .  S
C298        O336   1.271       .  A
C298        O304   1.280       .  A
C298        C874   1.482       .  S
O299        C306   1.270       .  A
H300        C313   1.081       .  S
C301        O315   1.235       .  S
C301        O316   1.268       .  A
C301        H326   1.081       .  S
O302        C325   1.267       .  A
O303       Mg317   2.157       .  S
O304       Mg334   2.339       .  S
C305        O318   1.273       .  A
C305        O310   1.268       .  A
C305        C829   1.468       .  S
C306        O333   1.268       .  A
C306        C847   1.474       .  S
Mg307       O314   2.128       .  S
Mg307       O315   2.156       .  S
Mg307       O308   2.291       .  S
Mg307       O309   2.289       .  S
Mg307       O336   2.233       .  S
O309        C313   1.267       .  A
O310       Mg317   2.274       .  S
O311        C330   1.270       .  A
O312        C332   1.271       .  A
O312       Mg328   2.274       .  S
O314       Mg328   2.157       .  S
O314        C325   1.234       .  S
O315       Mg334   2.134       .  S
O316       Mg328   2.289       .  S
Mg317       O333   2.220       .  S
O318       Mg334   2.251       .  S
H319        C324   1.081       .  S
O320       Mg328   2.136       .  S
O320        C323   1.233       .  S
H321        C323   1.081       .  S
H322        C325   1.081       .  S
O327       Mg334   2.292       .  S
C330        O335   1.273       .  A
C330        C838   1.474       .  S
O331        C332   1.270       .  A
C332        C856   1.471       .  S
O337       Mg339   2.139       .  S
O337       Mg345   2.142       .  S
O337        C372   1.236       .  S
C338        O351   1.237       .  S
C338        O375   1.273       .  A
C338        H377   1.081       .  S
Mg339       O368   2.135       .  S
Mg339       O383   2.326       .  S
Mg339       O379   2.258       .  S
Mg339       O350   2.311   1_455  S
O340       Mg382   2.141       .  S
O340       Mg365   2.156   1_655  S
O340        C361   1.235       .  S
O341        C372   1.271       .  A
O341       Mg365   2.304       .  S
C342        O344   1.262       .  A
C342        O356   1.280       .  A
C342       C1035   1.466       .  S
O343        C371   1.269       .  A
O343       Mg345   2.299       .  S
O344       Mg376   2.215       .  S
Mg345       O351   2.148       .  S
Mg345       O359   2.254       .  S
Mg345       O347   2.308       .  S
C346        O384   1.276       .  A
C346        O352   1.275       .  A
C346       C1008   1.484       .  S
O347        C354   1.273       .  A
H348        C361   1.081       .  S
C349        O363   1.236       .  S
C349        O364   1.270       .  A
C349        H374   1.081       .  S
O350        C373   1.272       .  A
O351       Mg365   2.137       .  S
O352       Mg382   2.312       .  S
C353        O366   1.268       .  A
C353        O358   1.270   1_655  A
C353        C999   1.465       .  S
C354        O381   1.269       .  A
C354       C1017   1.472       .  S
Mg355       O362   2.145       .  S
Mg355       O363   2.142       .  S
Mg355       O356   2.332       .  S
Mg355       O357   2.313       .  S
Mg355       O384   2.301       .  S
O357        C361   1.271       .  A
O358       Mg365   2.279       .  S
O359        C378   1.272       .  A
O360        C380   1.264   1_655  A
O360       Mg376   2.261       .  S
O362       Mg376   2.147       .  S
O362        C373   1.237       .  S
O363       Mg382   2.134       .  S
O364       Mg376   2.298       .  S
Mg365       O381   2.261       .  S
O366       Mg382   2.247       .  S
H367        C372   1.081       .  S
O368       Mg376   2.141   1_455  S
O368        C371   1.234       .  S
H369        C371   1.081       .  S
H370        C373   1.081       .  S
O375       Mg382   2.313   1_455  S
C378        O383   1.276       .  A
C378       C1044   1.478       .  S
O379        C380   1.271       .  A
C380       C1026   1.461   1_455  S
O385       Mg387   2.145       .  S
O385       Mg393   2.141       .  S
O385        C420   1.236       .  S
C386        O399   1.237       .  S
C386        O423   1.272       .  A
C386        H425   1.081       .  S
Mg387       O416   2.142       .  S
Mg387       O431   2.282       .  S
Mg387       O427   2.258       .  S
Mg387       O398   2.302       .  S
O388       Mg430   2.137       .  S
O388       Mg413   2.146       .  S
O388        C409   1.236       .  S
O389        C420   1.271       .  A
O389       Mg413   2.308       .  S
C390        O392   1.270       .  A
C390        O404   1.272       .  A
C390       C1449   1.470       .  S
O391        C419   1.271       .  A
O391       Mg393   2.309       .  S
O392       Mg424   2.257       .  S
Mg393       O399   2.143       .  S
Mg393       O407   2.271       .  S
Mg393       O395   2.314       .  S
C394        O432   1.268       .  A
C394        O400   1.271       .  A
C394       C1476   1.467       .  S
O395        C402   1.275       .  A
H396        C409   1.081       .  S
C397        O411   1.235       .  S
C397        O412   1.270       .  A
C397        H422   1.081       .  S
O398        C421   1.270       .  A
O399       Mg413   2.135       .  S
O400       Mg430   2.293       .  S
C401        O414   1.266       .  A
C401        O406   1.269       .  A
C401       C1467   1.461       .  S
C402        O429   1.268       .  A
C402       C1431   1.474       .  S
Mg403       O410   2.133       .  S
Mg403       O411   2.134       .  S
Mg403       O404   2.299       .  S
Mg403       O405   2.310       .  S
Mg403       O432   2.245       .  S
O405        C409   1.271       .  A
O406       Mg413   2.284       .  S
O407        C426   1.271       .  A
O408        C428   1.272       .  A
O408       Mg424   2.292       .  S
O410       Mg424   2.137       .  S
O410        C421   1.236       .  S
O411       Mg430   2.130       .  S
O412       Mg424   2.302       .  S
Mg413       O429   2.252       .  S
O414       Mg430   2.235       .  S
H415        C420   1.081       .  S
O416       Mg424   2.146       .  S
O416        C419   1.236       .  S
H417        C419   1.081       .  S
H418        C421   1.081       .  S
O423       Mg430   2.312       .  S
C426        O431   1.271       .  A
C426       C1458   1.470       .  S
O427        C428   1.269       .  A
C428       C1440   1.467       .  S
O433       Mg435   2.138       .  S
O433       Mg441   2.134       .  S
O433        C468   1.236       .  S
C434        O447   1.236       .  S
C434        O471   1.271       .  A
C434        H473   1.081       .  S
Mg435       O464   2.145       .  S
Mg435       O479   2.293       .  S
Mg435       O475   2.241       .  S
Mg435       O446   2.299       .  S
O436       Mg478   2.139       .  S
O436       Mg461   2.133       .  S
O436        C457   1.237       .  S
O437        C468   1.272       .  A
O437       Mg461   2.313       .  S
C438        O440   1.270       .  A
C438        O452   1.272       .  A
C438       C1143   1.470       .  S
O439        C467   1.271       .  A
O439       Mg441   2.305       .  S
O440       Mg472   2.258       .  S
Mg441       O447   2.140       .  S
Mg441       O455   2.251       .  S
Mg441       O443   2.286       .  S
C442        O480   1.268       .  A
C442        O448   1.271       .  A
C442       C1152   1.464       .  S
O443        C450   1.270       .  A
H444        C457   1.081       .  S
C445        O459   1.236       .  S
C445        O460   1.270       .  A
C445        H470   1.081       .  S
O446        C469   1.269       .  A
O447       Mg461   2.133       .  S
O448       Mg478   2.289       .  S
C449        O462   1.268       .  A
C449        O454   1.273       .  A
C449       C1109   1.468       .  S
C450        O477   1.268       .  A
C450       C1127   1.466       .  S
Mg451       O458   2.128       .  S
Mg451       O459   2.135       .  S
Mg451       O452   2.299       .  S
Mg451       O453   2.304       .  S
Mg451       O480   2.239       .  S
O453        C457   1.271       .  A
O454       Mg461   2.306       .  S
O455        C474   1.268       .  A
O456        C476   1.272       .  A
O456       Mg472   2.292       .  S
O458       Mg472   2.132       .  S
O458        C469   1.235       .  S
O459       Mg478   2.132       .  S
O460       Mg472   2.302       .  S
Mg461       O477   2.242       .  S
O462       Mg478   2.244       .  S
H463        C468   1.081       .  S
O464       Mg472   2.141       .  S
O464        C467   1.236       .  S
H465        C467   1.081       .  S
H466        C469   1.081       .  S
O471       Mg478   2.306       .  S
C474        O479   1.271       .  A
C474       C1116   1.467       .  S
O475        C476   1.268       .  A
C476       C1134   1.464       .  S
O481       Mg483   2.147       .  S
O481       Mg489   2.143       .  S
O481        C516   1.236       .  S
C482        O495   1.235       .  S
C482        O519   1.270       .  A
C482        H521   1.081       .  S
Mg483       O512   2.139       .  S
Mg483       O527   2.314       .  S
Mg483       O523   2.258       .  S
Mg483       O494   2.307       .  S
O484       Mg526   2.143       .  S
O484       Mg509   2.139       .  S
O484        C505   1.236       .  S
O485        C516   1.271       .  A
O485       Mg509   2.305       .  S
C486        O488   1.270       .  A
C486        O500   1.263       .  A
C486       C1404   1.458       .  S
O487        C515   1.270       .  A
O487       Mg489   2.303       .  S
O488       Mg520   2.245       .  S
Mg489       O495   2.141       .  S
Mg489       O503   2.239       .  S
Mg489       O491   2.301       .  S
C490        O528   1.264       .  A
C490        O496   1.271       .  A
C490       C1377   1.469       .  S
O491        C498   1.272       .  A
H492        C505   1.081       .  S
C493        O507   1.236       .  S
C493        O508   1.271       .  A
C493        H518   1.081       .  S
O494        C517   1.270       .  A
O495       Mg509   2.141       .  S
O496       Mg526   2.301       .  S
C497        O510   1.266       .  A
C497        O502   1.272       .  A
C497       C1413   1.463       .  S
C498        O525   1.268       .  A
C498       C1422   1.467       .  S
Mg499       O506   2.150       .  S
Mg499       O507   2.124       .  S
Mg499       O500   2.272       .  S
Mg499       O501   2.308       .  S
Mg499       O528   2.228       .  S
O501        C505   1.271       .  A
O502       Mg509   2.288       .  S
O503        C522   1.269       .  A
O504        C524   1.275       .  A
O504       Mg520   2.326       .  S
O506       Mg520   2.133       .  S
O506        C517   1.235       .  S
O507       Mg526   2.127       .  S
O508       Mg520   2.310       .  S
Mg509       O525   2.247       .  S
O510       Mg526   2.226       .  S
H511        C516   1.081       .  S
O512       Mg520   2.141       .  S
O512        C515   1.236       .  S
H513        C515   1.081       .  S
H514        C517   1.081       .  S
O519       Mg526   2.306       .  S
C522        O527   1.275       .  A
C522       C1386   1.470       .  S
O523        C524   1.272       .  A
C524       C1395   1.478       .  S
O529       Mg531   2.143       .  S
O529       Mg537   2.146       .  S
O529        C564   1.236       .  S
C530        O543   1.236       .  S
C530        O567   1.270       .  A
C530        H569   1.081       .  S
Mg531       O560   2.136       .  S
Mg531       O575   2.296       .  S
Mg531       O571   2.267       .  S
Mg531       O542   2.313   1_655  S
O532       Mg574   2.142       .  S
O532       Mg557   2.134   1_455  S
O532        C553   1.235       .  S
O533        C564   1.271       .  A
O533       Mg557   2.303       .  S
C534        O536   1.268       .  A
C534        O548   1.270       .  A
C534       C1512   1.469       .  S
O535        C563   1.271       .  A
O535       Mg537   2.310       .  S
O536       Mg568   2.250       .  S
Mg537       O543   2.144       .  S
Mg537       O551   2.299       .  S
Mg537       O539   2.328       .  S
C538        O576   1.269       .  A
C538        O544   1.271       .  A
C538       C1505   1.469       .  S
O539        C546   1.280       .  A
H540        C553   1.081       .  S
C541        O555   1.236       .  S
C541        O556   1.272   1_455  A
C541        H566   1.081   1_455  S
O542        C565   1.273       .  A
O543       Mg557   2.143       .  S
O544       Mg574   2.279       .  S
C545        O558   1.267   1_655  A
C545        O550   1.269       .  A
C545       C1485   1.461       .  S
C546        O573   1.265       .  A
C546       C1494   1.469       .  S
Mg547       O554   2.145       .  S
Mg547       O555   2.140       .  S
Mg547       O548   2.281       .  S
Mg547       O549   2.301       .  S
Mg547       O576   2.264       .  S
O549        C553   1.270       .  A
O550       Mg557   2.283       .  S
O551        C570   1.276       .  A
O552        C572   1.270   1_455  A
O552       Mg568   2.297       .  S
O554       Mg568   2.129       .  S
O554        C565   1.237       .  S
O555       Mg574   2.131       .  S
O556       Mg568   2.311   1_655  S
Mg557       O573   2.230       .  S
O558       Mg574   2.246       .  S
H559        C564   1.081       .  S
O560       Mg568   2.144   1_655  S
O560        C563   1.236       .  S
H561        C563   1.081       .  S
H562        C565   1.081       .  S
O567       Mg574   2.304   1_655  S
C570        O575   1.274       .  A
C570       C1532   1.480       .  S
O571        C572   1.270       .  A
C572       C1521   1.469       .  S
O577       Mg579   2.133       .  S
O577       Mg585   2.131       .  S
O577        C612   1.235       .  S
C578        O591   1.235       .  S
C578        O615   1.270       .  A
C578        H617   1.081       .  S
Mg579       O608   2.129       .  S
Mg579       O623   2.295       .  S
Mg579       O619   2.239       .  S
Mg579       O590   2.321   1_455  S
O580       Mg622   2.132       .  S
O580       Mg605   2.130   1_655  S
O580        C601   1.234       .  S
O581        C612   1.270       .  A
O581       Mg605   2.304   1_556  S
C582        O584   1.266       .  A
C582        O596   1.270   1_556  A
C582       C1062   1.467       .  S
O583        C611   1.272       .  A
O583       Mg585   2.315       .  S
O584       Mg616   2.253       .  S
Mg585       O591   2.135   1_556  S
Mg585       O599   2.247       .  S
Mg585       O587   2.284       .  S
C586        O624   1.268       .  A
C586        O592   1.270       .  A
C586       C1080   1.466       .  S
O587        C594   1.270   1_556  A
H588        C601   1.081       .  S
C589        O603   1.235       .  S
C589        O604   1.271       .  A
C589        H614   1.081       .  S
O590        C613   1.273       .  A
O591       Mg605   2.141       .  S
O592       Mg622   2.282       .  S
C593        O606   1.269   1_455  A
C593        O598   1.272       .  A
C593       C1071   1.469   1_455  S
C594        O621   1.268       .  A
C594       C1091   1.462   1_554  S
Mg595       O602   2.151   1_554  S
Mg595       O603   2.139       .  S
Mg595       O596   2.274       .  S
Mg595       O597   2.303       .  S
Mg595       O624   2.259       .  S
O597        C601   1.269       .  A
O598       Mg605   2.293       .  S
O599        C618   1.267       .  A
O600        C620   1.270   1_655  A
O600       Mg616   2.285       .  S
O602       Mg616   2.138       .  S
O602        C613   1.236       .  S
O603       Mg622   2.147       .  S
O604       Mg616   2.314   1_554  S
Mg605       O621   2.239       .  S
O606       Mg622   2.254       .  S
H607        C612   1.081       .  S
O608       Mg616   2.142   1_455  S
O608        C611   1.236       .  S
H609        C611   1.081       .  S
H610        C613   1.081       .  S
O615       Mg622   2.303   1_455  S
C618        O623   1.270       .  A
C618       C1098   1.468       .  S
O619        C620   1.265       .  A
C620       C1053   1.468   1_455  S
O625       Mg627   2.131       .  S
O625       Mg633   2.153   1_565  S
O625        C660   1.235   1_554  S
C626        O639   1.235       .  S
C626        O663   1.268   1_554  A
C626        H665   1.081       .  S
Mg627       O656   2.164       .  S
Mg627       O671   2.286       .  S
Mg627       O667   2.230       .  S
Mg627       O638   2.286       .  S
O628       Mg670   2.157       .  S
O628       Mg653   2.122       .  S
O628        C649   1.234       .  S
O629        C660   1.269   1_545  A
O629       Mg653   2.296       .  S
C630        O632   1.273       .  A
C630        O644   1.272   1_554  A
C630       C1278   1.475       .  S
O631        C659   1.269       .  A
O631       Mg633   2.296       .  S
O632       Mg664   2.250       .  S
Mg633       O639   2.128       .  S
Mg633       O647   2.244       .  S
Mg633       O635   2.284       .  S
C634        O672   1.271       .  A
C634        O640   1.273   1_565  A
C634       C1269   1.473   1_565  S
O635        C642   1.273   1_554  A
H636        C649   1.081       .  S
C637        O651   1.233   1_554  S
C637        O652   1.266   1_545  A
C637        H662   1.081   1_554  S
O638        C661   1.266   1_554  A
O639       Mg653   2.155   1_554  S
O640       Mg670   2.284       .  S
C641        O654   1.270       .  A
C641        O646   1.274       .  A
C641       C1296   1.474       .  S
C642        O669   1.270       .  A
C642       C1287   1.473       .  S
Mg643       O650   2.129       .  S
Mg643       O651   2.157   1_565  S
Mg643       O644   2.276       .  S
Mg643       O645   2.283       .  S
Mg643       O672   2.244       .  S
O645        C649   1.267   1_565  A
O646       Mg653   2.287       .  S
O647        C666   1.270       .  A
O648        C668   1.273       .  A
O648       Mg664   2.285       .  S
O650       Mg664   2.161   1_556  S
O650        C661   1.233       .  S
O651       Mg670   2.119       .  S
O652       Mg664   2.283       .  S
Mg653       O669   2.242       .  S
O654       Mg670   2.239       .  S
H655        C660   1.081   1_554  S
O656       Mg664   2.142       .  S
O656        C659   1.235   1_565  S
H657        C659   1.081       .  S
H658        C661   1.081       .  S
O663       Mg670   2.291       .  S
C666        O671   1.272   1_545  A
C666       C1307   1.474       .  S
O667        C668   1.270       .  A
C668       C1314   1.472       .  S
O673       Mg675   2.144   1_565  S
O673       Mg681   2.136       .  S
O673        C708   1.235       .  S
C674        O687   1.236       .  S
C674        O711   1.271       .  A
C674        H713   1.081       .  S
Mg675       O704   2.129       .  S
Mg675       O719   2.268       .  S
Mg675       O715   2.259       .  S
Mg675       O686   2.306       .  S
O676       Mg718   2.141       .  S
O676       Mg701   2.149       .  S
O676        C697   1.236       .  S
O677        C708   1.272       .  A
O677       Mg701   2.314       .  S
C678        O680   1.267       .  A
C678        O692   1.271       .  A
C678       C1323   1.464       .  S
O679        C707   1.271       .  A
O679       Mg681   2.308   1_545  S
O680       Mg712   2.235       .  S
Mg681       O687   2.137       .  S
Mg681       O695   2.243       .  S
Mg681       O683   2.290       .  S
C682        O720   1.268       .  A
C682        O688   1.271   1_545  A
C682       C1332   1.469       .  S
O683        C690   1.270       .  A
H684        C697   1.081       .  S
C685        O699   1.235       .  S
C685        O700   1.269       .  A
C685        H710   1.081       .  S
O686        C709   1.271       .  A
O687       Mg701   2.128       .  S
O688       Mg718   2.294       .  S
C689        O702   1.266       .  A
C689        O694   1.270       .  A
C689       C1341   1.462       .  S
C690        O717   1.269       .  A
C690       C1359   1.473       .  S
Mg691       O698   2.138       .  S
Mg691       O699   2.133       .  S
Mg691       O692   2.285       .  S
Mg691       O693   2.312   1_545  S
Mg691       O720   2.256       .  S
O693        C697   1.271       .  A
O694       Mg701   2.281       .  S
O695        C714   1.266       .  A
O696        C716   1.270       .  A
O696       Mg712   2.291       .  S
O698       Mg712   2.144       .  S
O698        C709   1.236       .  S
O699       Mg718   2.131   1_545  S
O700       Mg712   2.301       .  S
Mg701       O717   2.266       .  S
O702       Mg718   2.234       .  S
H703        C708   1.081       .  S
O704       Mg712   2.132       .  S
O704        C707   1.235       .  S
H705        C707   1.081       .  S
H706        C709   1.081       .  S
O711       Mg718   2.310       .  S
C714        O719   1.268   1_565  A
C714       C1350   1.461       .  S
O715        C716   1.267       .  A
C716       C1368   1.468       .  S
O721       Mg723   2.129       .  S
O721       Mg729   2.151       .  S
O721        C756   1.237       .  S
C722        O735   1.237       .  S
C722        O759   1.274       .  A
C722        H761   1.081       .  S
Mg723       O752   2.144       .  S
Mg723       O767   2.313       .  S
Mg723       O763   2.280       .  S
Mg723       O734   2.312   1_655  S
O724       Mg766   2.125       .  S
O724       Mg749   2.166   1_455  S
O724        C745   1.234       .  S
O725        C756   1.271       .  A
O725       Mg749   2.304   1_545  S
C726        O728   1.266       .  A
C726        O740   1.280   1_545  A
C726       C1611   1.467       .  S
O727        C755   1.267       .  A
O727       Mg729   2.295       .  S
O728       Mg760   2.241       .  S
Mg729       O735   2.123   1_545  S
Mg729       O743   2.224       .  S
Mg729       O731   2.257       .  S
C730        O768   1.280       .  A
C730        O736   1.277       .  A
C730       C1620   1.498       .  S
O731        C738   1.266   1_545  A
H732        C745   1.081       .  S
C733        O747   1.238       .  S
C733        O748   1.274   1_455  A
C733        H758   1.081       .  S
O734        C757   1.272       .  A
O735       Mg749   2.123       .  S
O736       Mg766   2.341       .  S
C737        O750   1.269   1_655  A
C737        O742   1.256       .  A
C737       C1593   1.459       .  S
C738        O765   1.262       .  A
C738       C1602   1.465       .  S
Mg739       O746   2.171   1_565  S
Mg739       O747   2.139       .  S
Mg739       O740   2.321       .  S
Mg739       O741   2.316       .  S
Mg739       O768   2.327       .  S
O741        C745   1.271       .  A
O742       Mg749   2.233       .  S
O743        C762   1.263       .  A
O744        C764   1.274   1_455  A
O744       Mg760   2.304       .  S
O746       Mg760   2.149       .  S
O746        C757   1.236       .  S
O747       Mg766   2.149       .  S
O748       Mg760   2.313   1_665  S
Mg749       O765   2.248       .  S
O750       Mg766   2.268       .  S
H751        C756   1.081       .  S
O752       Mg760   2.137   1_655  S
O752        C755   1.233       .  S
H753        C755   1.081       .  S
H754        C757   1.081       .  S
O759       Mg766   2.326   1_655  S
C762        O767   1.278       .  A
C762       C1640   1.461       .  S
O763        C764   1.272       .  A
C764       C1629   1.475       .  S
C769       C4021   1.499       .  S
C769        C770   1.407       .  A
C769        C774   1.418       .  A
C770        H775   1.084       .  S
C770        C771   1.392       .  A
C771        C772   1.395       .  A
C772        H776   1.085       .  S
C772        C773   1.407       .  A
C773       C4009   1.494       .  S
C773        C774   1.418       .  A
C774        H777   1.082       .  S
C778       C3985   1.485       .  S
C778        C779   1.416       .  A
C778        C783   1.405       .  A
C779        H784   1.083       .  S
C779        C780   1.416       .  A
C780       C3997   1.495       .  S
C780        C781   1.405       .  A
C781        H785   1.085       .  S
C781        C782   1.392       .  A
C782        C783   1.392       .  A
C783        H786   1.085       .  S
C787       C3964   1.487       .  S
C787        C788   1.411       .  A
C787        C792   1.411       .  A
C788        H793   1.084       .  S
C788        C789   1.404       .  A
C789        C790   1.399       .  A
C790        H794   1.084       .  S
C790        C791   1.403       .  A
C791       C3973   1.493       .  S
C791        C792   1.410       .  A
C792        H795   1.083       .  S
C796       C3952   1.512       .  S
C796        C797   1.410       .  A
C796        C801   1.418       .  A
C797        H802   1.082       .  S
C797        C798   1.390       .  A
C798        C799   1.399       .  A
C799        H803   1.084       .  S
C799        C800   1.409       .  A
C800       C3937   1.483       .  S
C800        C801   1.412       .  A
C801        H804   1.079       .  S
C805       C3913   1.493       .  S
C805        C806   1.405       .  A
C805        C810   1.416       .  A
C806        H811   1.085       .  S
C806        C807   1.391       .  A
C807        C808   1.394       .  A
C808        H812   1.085       .  S
C808        C809   1.407       .  A
C809       C3925   1.490       .  S
C809        C810   1.415       .  A
C810        H813   1.082       .  S
C814       C3889   1.490       .  S
C814        C815   1.404       .  A
C814        C819   1.421       .  A
C815        H820   1.085       .  S
C815        C816   1.392       .  A
C816        C817   1.384       .  A
C817        H821   1.084       .  S
C817        C818   1.409       .  A
C818       C3901   1.507       .  S
C818        C819   1.423       .  A
C819        H822   1.081       .  S
C823        C824   1.365       .  D
C823       C3865   1.507       .  S
C823       C3877   1.496       .  S
C824       C3892   1.501       .  S
C824       C3916   1.496       .  S
C825        C826   1.372       .  D
C825       C3949   1.507       .  S
C825       C3961   1.503       .  S
C826       C3841   1.520       .  S
C826       C3853   1.515       .  S
C827       C3829   1.489       .  S
C827        C828   1.401       .  A
C827        C832   1.421       .  A
C828        H833   1.085       .  S
C828        C829   1.392       .  A
C829        C830   1.386       .  A
C830        H834   1.077       .  S
C830        C831   1.404       .  A
C831       C3817   1.521       .  S
C831        C832   1.429       .  A
C832        H835   1.080       .  S
C836       C3805   1.481       .  S
C836        C837   1.400       .  A
C836        C841   1.409       .  A
C837        H842   1.085       .  S
C837        C838   1.392       .  A
C838        C839   1.399       .  A
C839        H843   1.084       .  S
C839        C840   1.406       .  A
C840       C3793   1.480       .  S
C840        C841   1.412       .  A
C841        H844   1.083       .  S
C845       C3781   1.500       .  S
C845        C846   1.406       .  A
C845        C850   1.419       .  A
C846        H851   1.084       .  S
C846        C847   1.385       .  A
C847        C848   1.391       .  A
C848        H852   1.085       .  S
C848        C849   1.410       .  A
C849       C3769   1.494       .  S
C849        C850   1.420       .  A
C850        H853   1.082       .  S
C854       C3745   1.496       .  S
C854        C855   1.410       .  A
C854        C859   1.417       .  A
C855        H860   1.084       .  S
C855        C856   1.390       .  A
C856        C857   1.383       .  A
C857        H861   1.084       .  S
C857        C858   1.405       .  A
C858       C3757   1.494       .  S
C858        C859   1.417       .  A
C859        H862   1.081       .  S
C863       C3733   1.489       .  S
C863        C864   1.412       .  A
C863        C868   1.404       .  A
C864        H869   1.083       .  S
C864        C865   1.413       .  A
C865       C3724   1.484       .  S
C865        C866   1.405       .  A
C866        H870   1.085       .  S
C866        C867   1.395       .  A
C867        C868   1.396       .  A
C868        H871   1.084       .  S
C872       C3697   1.486       .  S
C872        C873   1.404       .  A
C872        C877   1.407       .  A
C873        H878   1.085       .  S
C873        C874   1.401       .  A
C874        C875   1.400       .  A
C875        H879   1.084       .  S
C875        C876   1.409       .  A
C876       C3709   1.481       .  S
C876        C877   1.408       .  A
C877        H880   1.083       .  S
C881        C882   1.366       .  D
C881       C3721   1.504       .  S
C881       C3748   1.496       .  S
C882       C3673   1.493       .  S
C882       C3685   1.500       .  S
C883        C884   1.365       .  D
C883       C3712   1.508       .  S
C883       C3820   1.500       .  S
C884       C3649   1.493       .  S
C884       C3661   1.498       .  S
C885       C3628   1.483       .  S
C885        C886   1.405       .  A
C885        C890   1.412       .  A
C886        H891   1.085       .  S
C886        C887   1.387       .  A
C887        C888   1.394       .  A
C888        H892   1.084       .  S
C888        C889   1.410       .  A
C889       C3637   1.494       .  S
C889        C890   1.414       .  A
C890        H893   1.082       .  S
C894       C3613   1.490       .  S
C894        C895   1.406       .  A
C894        C899   1.417       .  A
C895        H900   1.085       .  S
C895        C896   1.393       .  A
C896        C897   1.398       .  A
C897        H901   1.084       .  S
C897        C898   1.407       .  A
C898       C3601   1.497       .  S
C898        C899   1.416       .  A
C899        H902   1.083       .  S
C903       C3589   1.498       .  S
C903        C904   1.408       .  A
C903        C908   1.420       .  A
C904        H909   1.084       .  S
C904        C905   1.394       .  A
C905        C906   1.386       .  A
C906        H910   1.085       .  S
C906        C907   1.404       .  A
C907       C3577   1.494       .  S
C907        C908   1.418       .  A
C908        H911   1.082       .  S
C912       C3553   1.482       .  S
C912        C913   1.401       .  A
C912        C917   1.410       .  A
C913        H918   1.085       .  S
C913        C914   1.393       .  A
C914        C915   1.399       .  A
C915        H919   1.085       .  S
C915        C916   1.404       .  A
C916       C3565   1.483       .  S
C916        C917   1.414       .  A
C917        H920   1.083       .  S
C921       C3529   1.488       .  S
C921        C922   1.405       .  A
C921        C926   1.412       .  A
C922        H927   1.084       .  S
C922        C923   1.396       .  A
C923        C924   1.392       .  A
C924        H928   1.085       .  S
C924        C925   1.403       .  A
C925       C3541   1.480       .  S
C925        C926   1.411       .  A
C926        H929   1.083       .  S
C930       C3517   1.498       .  S
C930        C931   1.408       .  A
C930        C935   1.415       .  A
C931        H936   1.084       .  S
C931        C932   1.396       .  A
C932        C933   1.390       .  A
C933        H937   1.085       .  S
C933        C934   1.406       .  A
C934       C3508   1.489       .  S
C934        C935   1.416       .  A
C935        H938   1.082       .  S
C939        C940   1.364       .  D
C939       C3505   1.496       .  S
C939       C3532   1.492       .  S
C940       C3481   1.497       .  S
C940       C3493   1.494       .  S
C941        C942   1.378       .  D
C941       C3568   1.495       .  S
C941       C3580   1.503       .  S
C942       C3457   1.533       .  S
C942       C3469   1.509       .  S
C943       C3448   1.488       .  S
C943        C944   1.404       .  A
C943        C948   1.415       .  A
C944        H949   1.085       .  S
C944        C945   1.396       .  A
C945        C946   1.387       .  A
C946        H950   1.085       .  S
C946        C947   1.405       .  A
C947       C3433   1.488       .  S
C947        C948   1.416       .  A
C948        H951   1.083       .  S
C952       C3844   1.517       .  S
C952        C953   1.405       .  A
C952        C957   1.420   1_556  A
C953        H958   1.082       .  S
C953        C954   1.385   1_556  A
C954        C955   1.395       .  A
C955        H959   1.084       .  S
C955        C956   1.417       .  A
C956       C3421   1.495       .  S
C956        C957   1.424       .  A
C957        H960   1.081   1_554  S
C961       C3856   1.490       .  S
C961        C962   1.411       .  A
C961        C966   1.417       .  A
C962        H967   1.084       .  S
C962        C963   1.397       .  A
C963        C964   1.396       .  A
C964        H968   1.085       .  S
C964        C965   1.405       .  A
C965       C3412   1.496       .  S
C965        C966   1.413       .  A
C966        H969   1.083       .  S
C970       C3385   1.486       .  S
C970        C971   1.404       .  A
C970        C975   1.416   1_556  A
C971        H976   1.085       .  S
C971        C972   1.389   1_556  A
C972        C973   1.396       .  A
C973        H977   1.085       .  S
C973        C974   1.404       .  A
C974       C3397   1.489       .  S
C974        C975   1.416       .  A
C975        H978   1.083       .  S
C979       C3361   1.491       .  S
C979        C980   1.406       .  A
C979        C984   1.415       .  A
C980        H985   1.085       .  S
C980        C981   1.392       .  A
C981        C982   1.387       .  A
C982        H986   1.085       .  S
C982        C983   1.409       .  A
C983       C3373   1.492       .  S
C983        C984   1.417       .  A
C984        H987   1.082       .  S
C988       C3349   1.485       .  S
C988        C989   1.407       .  A
C988        C993   1.422       .  A
C989        H994   1.085       .  S
C989        C990   1.380       .  A
C990        C991   1.381       .  A
C991        H995   1.085       .  S
C991        C992   1.402       .  A
C992       C3337   1.498       .  S
C992        C993   1.419       .  A
C993        H996   1.082       .  S
C997       C3313   1.494       .  S
C997        C998   1.407       .  A
C997       C1002   1.418   1_455  A
C998       H1003   1.084       .  S
C998        C999   1.386   1_455  A
C999       C1000   1.387       .  A
C1000      H1004   1.085       .  S
C1000      C1001   1.408       .  A
C1001      C3325   1.495       .  S
C1001      C1002   1.417       .  A
C1002      H1005   1.082       .  S
C1006      C3289   1.478       .  S
C1006      C1007   1.407       .  A
C1006      C1011   1.402       .  A
C1007      H1012   1.083       .  S
C1007      C1008   1.401       .  A
C1008      C1009   1.405       .  A
C1009      H1013   1.084       .  S
C1009      C1010   1.409       .  A
C1010      C3301   1.482       .  S
C1010      C1011   1.404       .  A
C1011      H1014   1.083       .  S
C1015      C3277   1.496       .  S
C1015      C1016   1.406       .  A
C1015      C1020   1.414       .  A
C1016      H1021   1.085       .  S
C1016      C1017   1.397       .  A
C1017      C1018   1.396       .  A
C1018      H1022   1.085       .  S
C1018      C1019   1.406       .  A
C1019      C3265   1.490       .  S
C1019      C1020   1.418       .  A
C1020      H1023   1.083       .  S
C1024      C3253   1.491       .  S
C1024      C1025   1.402       .  A
C1024      C1029   1.416   1_455  A
C1025      H1030   1.086       .  S
C1025      C1026   1.383   1_455  A
C1026      C1027   1.390       .  A
C1027      H1031   1.085       .  S
C1027      C1028   1.407       .  A
C1028      C3688   1.486       .  S
C1028      C1029   1.419       .  A
C1029      H1032   1.083       .  S
C1033      C3241   1.490       .  S
C1033      C1034   1.409       .  A
C1033      C1038   1.416       .  A
C1034      H1039   1.085       .  S
C1034      C1035   1.379       .  A
C1035      C1036   1.391       .  A
C1036      H1040   1.085       .  S
C1036      C1037   1.407       .  A
C1037      C3676   1.488       .  S
C1037      C1038   1.416       .  A
C1038      H1041   1.083       .  S
C1042      C3232   1.495       .  S
C1042      C1043   1.406       .  A
C1042      C1047   1.414       .  A
C1043      H1048   1.085       .  S
C1043      C1044   1.392       .  A
C1044      C1045   1.395       .  A
C1045      H1049   1.084       .  S
C1045      C1046   1.417       .  A
C1046      C3217   1.502       .  S
C1046      C1047   1.418       .  A
C1047      H1050   1.081       .  S
C1051      C3193   1.497       .  S
C1051      C1052   1.408       .  A
C1051      C1056   1.421   1_455  A
C1052      H1057   1.085       .  S
C1052      C1053   1.391   1_455  A
C1053      C1054   1.385       .  A
C1054      H1058   1.084       .  S
C1054      C1055   1.405       .  A
C1055      C3205   1.498       .  S
C1055      C1056   1.421       .  A
C1056      H1059   1.082       .  S
C1060      C3181   1.486       .  S
C1060      C1061   1.403       .  A
C1060      C1065   1.411   1_554  A
C1061      H1066   1.085       .  S
C1061      C1062   1.387   1_554  A
C1062      C1063   1.394       .  A
C1063      H1067   1.085       .  S
C1063      C1064   1.407       .  A
C1064      C3169   1.480       .  S
C1064      C1065   1.412       .  A
C1065      H1068   1.083   1_556  S
C1069      C3145   1.483       .  S
C1069      C1070   1.405       .  A
C1069      C1074   1.413   1_455  A
C1070      H1075   1.085       .  S
C1070      C1071   1.391   1_455  A
C1071      C1072   1.395       .  A
C1072      H1076   1.085       .  S
C1072      C1073   1.408       .  A
C1073      C3157   1.491       .  S
C1073      C1074   1.413       .  A
C1074      H1077   1.083       .  S
C1078      C3136   1.491       .  S
C1078      C1079   1.405       .  A
C1078      C1083   1.417       .  A
C1079      H1084   1.085       .  S
C1079      C1080   1.397       .  A
C1080      C1081   1.390       .  A
C1081      H1085   1.085       .  S
C1081      C1082   1.403       .  A
C1082      C3121   1.489       .  S
C1082      C1083   1.415       .  A
C1083      H1086   1.083       .  S
C1087      C3109   1.484       .  S
C1087      C1088   1.412   1_554  A
C1087      C1092   1.404       .  A
C1088      H1093   1.083       .  S
C1088      C1089   1.413       .  A
C1089      C3097   1.484       .  S
C1089      C1090   1.406       .  A
C1090      H1094   1.085       .  S
C1090      C1091   1.389       .  A
C1091      C1092   1.389   1_556  A
C1092      H1095   1.085       .  S
C1096      C3076   1.491       .  S
C1096      C1097   1.406       .  A
C1096      C1101   1.413       .  A
C1097      H1102   1.085       .  S
C1097      C1098   1.392       .  A
C1098      C1099   1.391       .  A
C1099      H1103   1.085       .  S
C1099      C1100   1.406       .  A
C1100      C3085   1.484       .  S
C1100      C1101   1.413       .  A
C1101      H1104   1.083       .  S
C1105      C3061   1.499       .  S
C1105      C1106   1.418       .  A
C1105      C1110   1.403       .  A
C1106      H1111   1.083       .  S
C1106      C1107   1.423       .  A
C1107      C3052   1.496       .  S
C1107      C1108   1.406       .  A
C1108      H1112   1.084       .  S
C1108      C1109   1.395       .  A
C1109      C1110   1.393       .  A
C1110      H1113   1.085       .  S
C1114      C3025   1.485       .  S
C1114      C1115   1.404       .  A
C1114      C1119   1.411       .  A
C1115      H1120   1.085       .  S
C1115      C1116   1.394       .  A
C1116      C1117   1.392       .  A
C1117      H1121   1.085       .  S
C1117      C1118   1.406       .  A
C1118      C3037   1.487       .  S
C1118      C1119   1.413       .  A
C1119      H1122   1.083       .  S
C1123      C3001   1.493       .  S
C1123      C1124   1.416       .  A
C1123      C1128   1.408       .  A
C1124      H1129   1.082       .  S
C1124      C1125   1.413       .  A
C1125      C3013   1.488       .  S
C1125      C1126   1.404       .  A
C1126      H1130   1.085       .  S
C1126      C1127   1.390       .  A
C1127      C1128   1.390       .  A
C1128      H1131   1.085       .  S
C1132      C2989   1.481       .  S
C1132      C1133   1.405       .  A
C1132      C1137   1.414       .  A
C1133      H1138   1.085       .  S
C1133      C1134   1.388       .  A
C1134      C1135   1.389       .  A
C1135      H1139   1.085       .  S
C1135      C1136   1.406       .  A
C1136      C2977   1.488       .  S
C1136      C1137   1.413       .  A
C1137      H1140   1.083       .  S
C1141      C2953   1.498       .  S
C1141      C1142   1.405       .  A
C1141      C1146   1.416       .  A
C1142      H1147   1.085       .  S
C1142      C1143   1.393       .  A
C1143      C1144   1.396       .  A
C1144      H1148   1.085       .  S
C1144      C1145   1.406       .  A
C1145      C2965   1.491       .  S
C1145      C1146   1.419       .  A
C1146      H1149   1.083       .  S
C1150      C2941   1.493       .  S
C1150      C1151   1.407       .  A
C1150      C1155   1.418       .  A
C1151      H1156   1.084       .  S
C1151      C1152   1.391       .  A
C1152      C1153   1.389       .  A
C1153      H1157   1.085       .  S
C1153      C1154   1.403       .  A
C1154      C2929   1.490       .  S
C1154      C1155   1.414       .  A
C1155      H1158   1.083       .  S
C1159      C2917   1.494       .  S
C1159      C1160   1.405       .  A
C1159      C1164   1.417       .  A
C1160      H1165   1.084       .  S
C1160      C1161   1.396       .  A
C1161      C1162   1.395       .  A
C1162      H1166   1.084       .  S
C1162      C1163   1.403       .  A
C1163      C2905   1.497       .  S
C1163      C1164   1.419       .  A
C1164      H1167   1.083       .  S
C1168      C2893   1.511       .  S
C1168      C1169   1.401       .  A
C1168      C1173   1.425       .  A
C1169      H1174   1.080       .  S
C1169      C1170   1.386       .  A
C1170      C1171   1.394       .  A
C1171      H1175   1.085       .  S
C1171      C1172   1.404       .  A
C1172      C2881   1.489       .  S
C1172      C1173   1.422       .  A
C1173      H1176   1.082       .  S
C1177      C2857   1.489       .  S
C1177      C1178   1.411       .  A
C1177      C1182   1.407       .  A
C1178      H1183   1.081       .  S
C1178      C1179   1.406       .  A
C1179      C1180   1.401       .  A
C1180      H1184   1.085       .  S
C1180      C1181   1.404       .  A
C1181      C2869   1.483       .  S
C1181      C1182   1.407       .  A
C1182      H1185   1.083       .  S
C1186      C2848   1.489       .  S
C1186      C1187   1.409       .  A
C1186      C1191   1.421       .  A
C1187      H1192   1.085       .  S
C1187      C1188   1.393       .  A
C1188      C1189   1.384       .  A
C1189      H1193   1.084       .  S
C1189      C1190   1.402       .  A
C1190      C2833   1.501       .  S
C1190      C1191   1.418       .  A
C1191      H1194   1.082       .  S
C1195      C2809   1.496       .  S
C1195      C1196   1.402       .  A
C1195      C1200   1.418       .  A
C1196      H1201   1.084       .  S
C1196      C1197   1.389       .  A
C1197      C1198   1.393       .  A
C1198      H1202   1.085       .  S
C1198      C1199   1.407       .  A
C1199      C2821   1.492       .  S
C1199      C1200   1.420       .  A
C1200      H1203   1.083       .  S
C1204      C2788   1.496       .  S
C1204      C1205   1.408       .  A
C1204      C1209   1.418       .  A
C1205      H1210   1.084       .  S
C1205      C1206   1.392       .  A
C1206      C1207   1.391       .  A
C1207      H1211   1.084       .  S
C1207      C1208   1.409       .  A
C1208      C2797   1.499       .  S
C1208      C1209   1.416       .  A
C1209      H1212   1.081       .  S
C1213      C3472   1.476       .  S
C1213      C1214   1.407       .  A
C1213      C1218   1.401       .  A
C1214      H1219   1.084       .  S
C1214      C1215   1.398       .  A
C1215      C1216   1.398   1_556  A
C1216      H1220   1.084       .  S
C1216      C1217   1.407       .  A
C1217      C2776   1.479       .  S
C1217      C1218   1.405   1_554  A
C1218      H1221   1.083   1_556  S
C1222      C3460   1.488       .  S
C1222      C1223   1.409       .  A
C1222      C1227   1.414       .  A
C1223      H1228   1.085       .  S
C1223      C1224   1.389       .  A
C1224      C1225   1.392       .  A
C1225      H1229   1.085       .  S
C1225      C1226   1.409       .  A
C1226      C2761   1.497       .  S
C1226      C1227   1.416       .  A
C1227      H1230   1.083       .  S
C1231      C2749   1.489       .  S
C1231      C1232   1.404       .  A
C1231      C1236   1.415       .  A
C1232      H1237   1.085       .  S
C1232      C1233   1.394       .  A
C1233      C1234   1.392       .  A
C1234      H1238   1.084       .  S
C1234      C1235   1.409       .  A
C1235      C2737   1.503       .  S
C1235      C1236   1.419       .  A
C1236      H1239   1.081       .  S
C1240      C2713   1.492       .  S
C1240      C1241   1.406       .  A
C1240      C1245   1.416       .  A
C1241      H1246   1.084       .  S
C1241      C1242   1.393   1_556  A
C1242      C1243   1.394       .  A
C1243      H1247   1.085       .  S
C1243      C1244   1.404       .  A
C1244      C2725   1.486       .  S
C1244      C1245   1.413   1_554  A
C1245      H1248   1.083       .  S
C1249      C2689   1.493       .  S
C1249      C1250   1.403       .  A
C1249      C1254   1.415       .  A
C1250      H1255   1.085       .  S
C1250      C1251   1.392       .  A
C1251      C1252   1.393       .  A
C1252      H1256   1.085       .  S
C1252      C1253   1.406       .  A
C1253      C2701   1.486       .  S
C1253      C1254   1.417       .  A
C1254      H1257   1.083       .  S
C1258      C2668   1.491       .  S
C1258      C1259   1.408       .  A
C1258      C1263   1.416       .  A
C1259      H1264   1.085       .  S
C1259      C1260   1.387       .  A
C1260      C1261   1.390       .  A
C1261      H1265   1.085       .  S
C1261      C1262   1.407       .  A
C1262      C2677   1.490       .  S
C1262      C1263   1.415       .  A
C1263      H1266   1.082       .  S
C1267      C2653   1.487       .  S
C1267      C1268   1.405       .  A
C1267      C1272   1.415   1_565  A
C1268      H1273   1.085       .  S
C1268      C1269   1.393   1_565  A
C1269      C1270   1.394       .  A
C1270      H1274   1.085       .  S
C1270      C1271   1.404       .  A
C1271      C2644   1.492       .  S
C1271      C1272   1.415       .  A
C1272      H1275   1.083       .  S
C1276      C2617   1.494       .  S
C1276      C1277   1.408       .  A
C1276      C1281   1.414       .  A
C1277      H1282   1.084       .  S
C1277      C1278   1.396   1_556  A
C1278      C1279   1.389       .  A
C1279      H1283   1.085       .  S
C1279      C1280   1.404       .  A
C1280      C2629   1.483       .  S
C1280      C1281   1.413   1_554  A
C1281      H1284   1.083       .  S
C1285      C2605   1.485       .  S
C1285      C1286   1.405       .  A
C1285      C1290   1.417   1_556  A
C1286      H1291   1.085       .  S
C1286      C1287   1.392       .  A
C1287      C1288   1.393   1_556  A
C1288      H1292   1.084       .  S
C1288      C1289   1.405       .  A
C1289      C2593   1.495       .  S
C1289      C1290   1.416       .  A
C1290      H1293   1.083       .  S
C1294      C2569   1.500       .  S
C1294      C1295   1.406       .  A
C1294      C1299   1.419       .  A
C1295      H1300   1.084       .  S
C1295      C1296   1.391       .  A
C1296      C1297   1.392       .  A
C1297      H1301   1.085       .  S
C1297      C1298   1.405       .  A
C1298      C2584   1.491       .  S
C1298      C1299   1.420       .  A
C1299      H1302   1.082       .  S
C1303      C2548   1.496       .  S
C1303      C1304   1.415       .  A
C1303      C1308   1.408       .  A
C1304      H1309   1.083       .  S
C1304      C1305   1.415   1_565  A
C1305      C2557   1.487       .  S
C1305      C1306   1.405       .  A
C1306      H1310   1.085       .  S
C1306      C1307   1.391       .  A
C1307      C1308   1.395   1_545  A
C1308      H1311   1.084       .  S
C1312      C2521   1.489       .  S
C1312      C1313   1.402       .  A
C1312      C1317   1.415       .  A
C1313      H1318   1.085       .  S
C1313      C1314   1.389       .  A
C1314      C1315   1.395       .  A
C1315      H1319   1.084       .  S
C1315      C1316   1.408       .  A
C1316      C2533   1.495       .  S
C1316      C1317   1.418       .  A
C1317      H1320   1.082       .  S
C1321      C2497   1.494       .  S
C1321      C1322   1.406       .  A
C1321      C1326   1.418       .  A
C1322      H1327   1.085       .  S
C1322      C1323   1.388       .  A
C1323      C1324   1.387       .  A
C1324      H1328   1.084       .  S
C1324      C1325   1.406       .  A
C1325      C2512   1.496       .  S
C1325      C1326   1.420       .  A
C1326      H1329   1.082       .  S
C1330      C2473   1.486       .  S
C1330      C1331   1.404       .  A
C1330      C1335   1.414   1_565  A
C1331      H1336   1.085       .  S
C1331      C1332   1.393   1_565  A
C1332      C1333   1.396       .  A
C1333      H1337   1.085       .  S
C1333      C1334   1.406       .  A
C1334      C2488   1.489       .  S
C1334      C1335   1.414       .  A
C1335      H1338   1.083       .  S
C1339      C2461   1.490       .  S
C1339      C1340   1.404       .  A
C1339      C1344   1.417       .  A
C1340      H1345   1.085       .  S
C1340      C1341   1.388       .  A
C1341      C1342   1.386       .  A
C1342      H1346   1.084       .  S
C1342      C1343   1.405       .  A
C1343      C2449   1.493       .  S
C1343      C1344   1.419       .  A
C1344      H1347   1.082       .  S
C1348      C3652   1.484       .  S
C1348      C1349   1.404       .  A
C1348      C1353   1.414       .  A
C1349      H1354   1.085       .  S
C1349      C1350   1.389       .  A
C1350      C1351   1.386   1_565  A
C1351      H1355   1.085       .  S
C1351      C1352   1.405       .  A
C1352      C2437   1.491       .  S
C1352      C1353   1.414   1_545  A
C1353      H1356   1.082   1_565  S
C1357      C3664   1.489       .  S
C1357      C1358   1.407       .  A
C1357      C1362   1.412       .  A
C1358      H1363   1.085       .  S
C1358      C1359   1.393       .  A
C1359      C1360   1.396       .  A
C1360      H1364   1.085       .  S
C1360      C1361   1.407       .  A
C1361      C2425   1.487       .  S
C1361      C1362   1.412       .  A
C1362      H1365   1.083       .  S
C1366      C2413   1.490       .  S
C1366      C1367   1.402       .  A
C1366      C1371   1.417       .  A
C1367      H1372   1.085       .  S
C1367      C1368   1.395       .  A
C1368      C1369   1.400       .  A
C1369      H1373   1.085       .  S
C1369      C1370   1.404       .  A
C1370      C2401   1.492       .  S
C1370      C1371   1.415       .  A
C1371      H1374   1.083       .  S
C1375      C2377   1.492       .  S
C1375      C1376   1.408       .  A
C1375      C1380   1.411       .  A
C1376      H1381   1.085       .  S
C1376      C1377   1.395       .  A
C1377      C1378   1.388       .  A
C1378      H1382   1.085       .  S
C1378      C1379   1.405       .  A
C1379      C2392   1.477       .  S
C1379      C1380   1.411       .  A
C1380      H1383   1.083       .  S
C1384      C2353   1.485       .  S
C1384      C1385   1.407       .  A
C1384      C1389   1.416       .  A
C1385      H1390   1.085       .  S
C1385      C1386   1.390       .  A
C1386      C1387   1.393       .  A
C1387      H1391   1.085       .  S
C1387      C1388   1.408       .  A
C1388      C2368   1.498       .  S
C1388      C1389   1.414       .  A
C1389      H1392   1.083       .  S
C1393      C2329   1.495       .  S
C1393      C1394   1.405       .  A
C1393      C1398   1.413       .  A
C1394      H1399   1.084       .  S
C1394      C1395   1.393       .  A
C1395      C1396   1.399       .  A
C1396      H1400   1.084       .  S
C1396      C1397   1.414       .  A
C1397      C2341   1.492       .  S
C1397      C1398   1.414       .  A
C1398      H1401   1.083       .  S
C1402      C2317   1.480       .  S
C1402      C1403   1.407       .  A
C1402      C1407   1.421       .  A
C1403      H1408   1.085       .  S
C1403      C1404   1.389       .  A
C1404      C1405   1.381       .  A
C1405      H1409   1.085       .  S
C1405      C1406   1.400       .  A
C1406      C2308   1.498       .  S
C1406      C1407   1.415       .  A
C1407      H1410   1.082       .  S
C1411      C2293   1.494       .  S
C1411      C1412   1.406       .  A
C1411      C1416   1.419       .  A
C1412      H1417   1.084       .  S
C1412      C1413   1.386       .  A
C1413      C1414   1.388       .  A
C1414      H1418   1.085       .  S
C1414      C1415   1.404       .  A
C1415      C2281   1.490       .  S
C1415      C1416   1.417       .  A
C1416      H1419   1.082       .  S
C1420      C2257   1.484       .  S
C1420      C1421   1.404       .  A
C1420      C1425   1.409       .  A
C1421      H1426   1.085       .  S
C1421      C1422   1.396       .  A
C1422      C1423   1.393       .  A
C1423      H1427   1.085       .  S
C1423      C1424   1.404       .  A
C1424      C2269   1.479       .  S
C1424      C1425   1.410       .  A
C1425      H1428   1.083       .  S
C1429      C2245   1.489       .  S
C1429      C1430   1.408       .  A
C1429      C1434   1.411       .  A
C1430      H1435   1.085       .  S
C1430      C1431   1.398       .  A
C1431      C1432   1.392       .  A
C1432      H1436   1.085       .  S
C1432      C1433   1.405       .  A
C1433      C2233   1.483       .  S
C1433      C1434   1.411       .  A
C1434      H1437   1.083       .  S
C1438      C2221   1.491       .  S
C1438      C1439   1.404       .  A
C1438      C1443   1.413       .  A
C1439      H1444   1.085       .  S
C1439      C1440   1.395       .  A
C1440      C1441   1.394       .  A
C1441      H1445   1.084       .  S
C1441      C1442   1.406       .  A
C1442      C2209   1.492       .  S
C1442      C1443   1.417       .  A
C1443      H1446   1.083       .  S
C1447      C2197   1.486       .  S
C1447      C1448   1.407       .  A
C1447      C1452   1.413       .  A
C1448      H1453   1.085       .  S
C1448      C1449   1.396       .  A
C1449      C1450   1.393       .  A
C1450      H1454   1.085       .  S
C1450      C1451   1.404       .  A
C1451      C2185   1.490       .  S
C1451      C1452   1.411       .  A
C1452      H1455   1.083       .  S
C1456      C2161   1.489       .  S
C1456      C1457   1.407       .  A
C1456      C1461   1.412       .  A
C1457      H1462   1.085       .  S
C1457      C1458   1.391       .  A
C1458      C1459   1.392       .  A
C1459      H1463   1.085       .  S
C1459      C1460   1.410       .  A
C1460      C2176   1.486       .  S
C1460      C1461   1.410       .  A
C1461      H1464   1.082       .  S
C1465      C2137   1.488       .  S
C1465      C1466   1.405       .  A
C1465      C1470   1.417       .  A
C1466      H1471   1.085       .  S
C1466      C1467   1.387       .  A
C1467      C1468   1.389       .  A
C1468      H1472   1.085       .  S
C1468      C1469   1.404       .  A
C1469      C2152   1.489       .  S
C1469      C1470   1.417       .  A
C1470      H1473   1.083       .  S
C1474      C2125   1.493       .  S
C1474      C1475   1.406       .  A
C1474      C1479   1.415       .  A
C1475      H1480   1.085       .  S
C1475      C1476   1.390       .  A
C1476      C1477   1.390       .  A
C1477      H1481   1.085       .  S
C1477      C1478   1.407       .  A
C1478      C2113   1.488       .  S
C1478      C1479   1.415       .  A
C1479      H1482   1.082       .  S
C1483      C2101   1.481       .  S
C1483      C1484   1.401       .  A
C1483      C1488   1.411   1_455  A
C1484      H1489   1.085       .  S
C1484      C1485   1.395   1_455  A
C1485      C1486   1.392       .  A
C1486      H1490   1.085       .  S
C1486      C1487   1.404       .  A
C1487      C3484   1.484       .  S
C1487      C1488   1.412       .  A
C1488      H1491   1.083       .  S
C1492      C2089   1.494       .  S
C1492      C1493   1.409       .  A
C1492      C1497   1.416       .  A
C1493      H1498   1.085       .  S
C1493      C1494   1.381       .  A
C1494      C1495   1.390       .  A
C1495      H1499   1.085       .  S
C1495      C1496   1.408       .  A
C1496      C3496   1.490       .  S
C1496      C1497   1.416       .  A
C1497      H1500   1.083       .  S
C1501      C2065   1.479       .  S
C1501      C1502   1.411       .  A
C1501      C1506   1.404       .  A
C1502      H1507   1.083       .  S
C1502      C1503   1.413       .  A
C1503      C2077   1.494       .  S
C1503      C1504   1.406       .  A
C1504      H1508   1.084       .  S
C1504      C1505   1.393       .  A
C1505      C1506   1.394       .  A
C1506      H1509   1.085       .  S
C1510      C2041   1.492       .  S
C1510      C1511   1.408       .  A
C1510      C1515   1.415       .  A
C1511      H1516   1.085       .  S
C1511      C1512   1.389       .  A
C1512      C1513   1.388       .  A
C1513      H1517   1.084       .  S
C1513      C1514   1.409       .  A
C1514      C2053   1.496       .  S
C1514      C1515   1.417       .  A
C1515      H1518   1.081       .  S
C1519      C2029   1.489       .  S
C1519      C1520   1.408       .  A
C1519      C1524   1.414   1_455  A
C1520      H1525   1.084       .  S
C1520      C1521   1.398   1_455  A
C1521      C1522   1.395       .  A
C1522      H1526   1.085       .  S
C1522      C1523   1.402       .  A
C1523      C2017   1.486       .  S
C1523      C1524   1.410       .  A
C1524      H1527   1.083       .  S
C1528      C2005   1.479       .  S
C1528      C1529   1.405       .  A
C1528      C1533   1.407       .  A
C1529      H1534   1.083       .  S
C1529      C1530   1.410       .  A
C1530      C1993   1.492       .  S
C1530      C1531   1.409       .  A
C1531      H1535   1.084       .  S
C1531      C1532   1.401       .  A
C1532      C1533   1.398       .  A
C1533      H1536   1.083       .  S
C1537      C1981   1.498       .  S
C1537      C1538   1.407       .  A
C1537      C1542   1.412       .  A
C1538      H1543   1.084       .  S
C1538      C1539   1.396       .  A
C1539      C1540   1.397       .  A
C1540      H1544   1.082       .  S
C1540      C1541   1.412       .  A
C1541      C1969   1.486       .  S
C1541      C1542   1.413       .  A
C1542      H1545   1.082       .  S
C1546      C3868   1.505       .  S
C1546      C1547   1.421   1_565  A
C1546      C1551   1.406       .  A
C1547      H1552   1.082       .  S
C1547      C1548   1.422       .  A
C1548      C1960   1.490       .  S
C1548      C1549   1.405       .  A
C1549      H1553   1.085       .  S
C1549      C1550   1.387       .  A
C1550      C1551   1.392   1_545  A
C1551      H1554   1.085       .  S
C1555      C3880   1.478       .  S
C1555      C1556   1.407       .  A
C1555      C1560   1.420       .  A
C1556      H1561   1.085       .  S
C1556      C1557   1.387       .  A
C1557      C1558   1.382       .  A
C1558      H1562   1.085       .  S
C1558      C1559   1.401       .  A
C1559      C1945   1.499       .  S
C1559      C1560   1.416       .  A
C1560      H1563   1.082       .  S
C1564      C1921   1.495       .  S
C1564      C1565   1.410       .  A
C1564      C1569   1.427   1_565  A
C1565      H1570   1.084       .  S
C1565      C1566   1.375       .  A
C1566      C1567   1.375   1_565  A
C1567      H1571   1.083       .  S
C1567      C1568   1.406       .  A
C1568      C1933   1.514       .  S
C1568      C1569   1.428       .  A
C1569      H1572   1.080       .  S
C1573      C1897   1.495       .  S
C1573      C1574   1.404       .  A
C1573      C1578   1.413       .  A
C1574      H1579   1.085       .  S
C1574      C1575   1.401       .  A
C1575      C1576   1.397       .  A
C1576      H1580   1.084       .  S
C1576      C1577   1.411       .  A
C1577      C1909   1.493       .  S
C1577      C1578   1.416       .  A
C1578      H1581   1.083       .  S
C1582      C1885   1.482       .  S
C1582      C1583   1.407       .  A
C1582      C1587   1.414       .  A
C1583      H1588   1.085       .  S
C1583      C1584   1.393       .  A
C1584      C1585   1.392       .  A
C1585      H1589   1.084       .  S
C1585      C1586   1.404       .  A
C1586      C1873   1.494       .  S
C1586      C1587   1.413       .  A
C1587      H1590   1.083       .  S
C1591      C1849   1.503       .  S
C1591      C1592   1.405       .  A
C1591      C1596   1.423   1_455  A
C1592      H1597   1.083       .  S
C1592      C1593   1.373   1_455  A
C1593      C1594   1.378       .  A
C1594      H1598   1.084       .  S
C1594      C1595   1.408       .  A
C1595      C1861   1.490       .  S
C1595      C1596   1.423       .  A
C1596      H1599   1.082       .  S
C1600      C1837   1.495       .  S
C1600      C1601   1.400       .  A
C1600      C1605   1.418       .  A
C1601      H1606   1.084       .  S
C1601      C1602   1.384   1_545  A
C1602      C1603   1.393       .  A
C1603      H1607   1.085       .  S
C1603      C1604   1.408       .  A
C1604      C1825   1.488       .  S
C1604      C1605   1.419   1_565  A
C1605      H1608   1.082       .  S
C1609      C1801   1.494       .  S
C1609      C1610   1.409       .  A
C1609      C1614   1.418   1_545  A
C1610      H1615   1.085       .  S
C1610      C1611   1.387       .  A
C1611      C1612   1.380   1_545  A
C1612      H1616   1.084       .  S
C1612      C1613   1.409       .  A
C1613      C1813   1.498       .  S
C1613      C1614   1.420       .  A
C1614      H1617   1.082       .  S
C1618      C1777   1.486       .  S
C1618      C1619   1.408       .  A
C1618      C1623   1.402       .  A
C1619      H1624   1.084       .  S
C1619      C1620   1.407       .  A
C1620      C1621   1.415       .  A
C1621      H1625   1.083       .  S
C1621      C1622   1.417       .  A
C1622      C1789   1.498       .  S
C1622      C1623   1.407       .  A
C1623      H1626   1.084       .  S
C1627      C1765   1.479       .  S
C1627      C1628   1.404       .  A
C1627      C1632   1.407   1_455  A
C1628      H1633   1.085       .  S
C1628      C1629   1.398   1_455  A
C1629      C1630   1.401       .  A
C1630      H1634   1.084       .  S
C1630      C1631   1.408       .  A
C1631      C1753   1.481       .  S
C1631      C1632   1.406       .  A
C1632      H1635   1.083   1_655  S
C1636      C1741   1.492       .  S
C1636      C1637   1.424       .  A
C1636      C1641   1.405       .  A
C1637      H1642   1.082       .  S
C1637      C1638   1.424       .  A
C1638      C1729   1.507       .  S
C1638      C1639   1.407       .  A
C1639      H1643   1.085       .  S
C1639      C1640   1.380       .  A
C1640      C1641   1.391       .  A
C1641      H1644   1.085       .  S
C1645      C1646   1.365       .  D
C1645      C2116   1.497       .  S
C1645      C2149   1.495       .  S
C1646      C1768   1.499       .  S
C1646      C1804   1.500       .  S
C1647      C1648   1.378       .  D
C1647      C1912   1.511       .  S
C1647      C1948   1.528       .  S
C1648      C1792   1.515       .  S
C1648      C1852   1.527       .  S
C1649      C1650   1.369       .  D
C1649      C2008   1.511       .  S
C1649      C2092   1.509       .  S
C1650      C1744   1.505       .  S
C1650      C1840   1.490       .  S
C1651      C1652   1.368       .  D
C1651      C2032   1.504       .  S
C1651      C2044   1.491       .  S
C1652      C1936   1.507       .  S
C1652      C1972   1.519       .  S
C1653      C1654   1.367       .  D
C1653      C1876   1.493       .  S
C1653      C1957   1.505       .  S
C1654      C2188   1.492       .  S
C1654      C2212   1.501       .  S
C1655      C1656   1.370       .  D
C1655      C2572   1.498       .  S
C1655      C2608   1.510       .  S
C1656      C1888   1.506       .  S
C1656      C1984   1.498       .  S
C1657      C1658   1.366       .  D
C1657      C3073   1.490       .  S
C1657      C3100   1.503       .  S
C1658      C2056   1.497       .  S
C1658      C2068   1.500       .  S
C1659      C1660   1.380       .  D
C1659      C2173   1.505       .  S
C1659      C2236   1.547       .  S
C1660      C2080   1.499       .  S
C1660      C2104   1.490       .  S
C1661      C1662   1.369       .  D
C1661      C2812   1.503       .  S
C1661      C2845   1.501       .  S
C1662      C2164   1.497       .  S
C1662      C2224   1.497       .  S
C1663      C1664   1.367       .  D
C1663      C2332   1.493       .  S
C1663      C2356   1.502       .  S
C1664      C2128   1.496       .  S
C1664      C2200   1.501       .  S
C1665      C1666   1.370       .  D
C1665      C2956   1.500       .  S
C1665      C2992   1.504       .  S
C1666      C2140   1.503       .  S
C1666      C2248   1.496       .  S
C1667      C1668   1.381       .  D
C1667      C2305   1.538       .  S
C1667      C2344   1.526       .  S
C1668      C2404   1.501       .  S
C1668      C2440   1.497       .  S
C1669      C1670   1.368       .  D
C1669      C2560   1.500       .  S
C1669      C2596   1.494       .  S
C1670      C2272   1.500       .  S
C1670      C2365   1.501       .  S
C1671      C1672   1.363       .  D
C1671      C2680   1.495       .  S
C1671      C2773   1.490       .  S
C1672      C2284   1.499       .  S
C1672      C2389   1.498       .  S
C1673      C1674   1.367       .  D
C1673      C2860   1.514       .  S
C1673      C2896   1.496       .  S
C1674      C2320   1.503       .  S
C1674      C2380   1.494       .  S
C1675      C1676   1.363       .  D
C1675      C3004   1.497       .  S
C1675      C3028   1.494       .  S
C1676      C2260   1.494       .  S
C1676      C2296   1.496       .  S
C1677      C1678   1.367       .  D
C1677      C2728   1.497       .  S
C1677      C2740   1.501       .  S
C1678      C2485   1.498       .  S
C1678      C2509   1.498       .  S
C1679      C1680   1.370       .  D
C1679      C2704   1.510       .  S
C1679      C2764   1.497       .  S
C1680      C2581   1.509       .  S
C1680      C2641   1.498       .  S
C1681      C1682   1.367       .  D
C1681      C2536   1.497       .  S
C1681      C2632   1.502       .  S
C1682      C2428   1.495       .  S
C1682      C2452   1.498       .  S
C1683      C1684   1.367       .  D
C1683      C3124   1.505       .  S
C1683      C3160   1.497       .  S
C1684      C2665   1.499       .  S
C1684      C2752   1.495       .  S
C1685      C1686   1.369       .  D
C1685      C2785   1.497       .  S
C1685      C2920   1.504       .  S
C1686      C2944   1.495       .  S
C1686      C3064   1.507       .  S
C1687      C1688   1.364       .  D
C1687      C3112   1.494       .  S
C1687      C3148   1.502       .  S
C1688      C2980   1.490       .  S
C1688      C3040   1.497       .  S
C1689      C1690   1.372       .  D
C1689      C3376   1.497       .  S
C1689      C3409   1.504       .  S
C1690      C3088   1.503       .  S
C1690      C3196   1.507       .  S
C1691      C1692   1.369       .  D
C1691      C3244   1.511       .  S
C1691      C3292   1.510       .  S
C1692      C3133   1.499       .  S
C1692      C3184   1.485       .  S
C1693      C1694   1.370       .  D
C1693      C3400   1.513       .  S
C1693      C3436   1.497       .  S
C1694      C3280   1.508       .  S
C1694      C3316   1.489       .  S
C1695      C1696   1.383       .  D
C1695      C3220   1.516       .  S
C1695      C3256   1.552       .  S
C1696      C2932   1.502       .  S
C1696      C2968   1.503       .  S
C1697      C1698   1.371       .  D
C1697      C3229   1.494       .  S
C1697      C3268   1.509       .  S
C1698      C1780   1.513       .  S
C1698      C1816   1.504       .  S
C1699      C1700   1.368       .  D
C1699      C3352   1.499       .  S
C1699      C3445   1.505       .  S
C1700      C2524   1.503       .  S
C1700      C2545   1.494       .  S
C1701      C1702   1.371       .  D
C1701      C2416   1.508       .  S
C1701      C2500   1.495       .  S
C1702      C1732   1.509       .  S
C1702      C1756   1.512       .  S
C1703      C1704   1.378       .  D
C1703      C3016   1.496       .  S
C1703      C3049   1.504       .  S
C1704      C3340   1.537       .  S
C1704      C3424   1.520       .  S
C1705      C1706   1.368       .  D
C1705      C3304   1.506       .  S
C1705      C3328   1.494       .  S
C1706      C2464   1.497       .  S
C1706      C2476   1.509       .  S
C1707      C1708   1.371       .  D
C1707      C3772   1.501       .  S
C1707      C3808   1.508       .  S
C1708      C1828   1.503       .  S
C1708      C1864   1.494       .  S
C1709      C1710   1.368       .  D
C1709      C3604   1.499       .  S
C1709      C3625   1.497       .  S
C1710      C3172   1.495       .  S
C1710      C3208   1.500       .  S
C1711      C1712   1.367       .  D
C1711      C3988   1.497       .  S
C1711      C4024   1.502       .  S
C1712      C2620   1.499       .  S
C1712      C2656   1.500       .  S
C1713      C1714   1.367       .  D
C1713      C3904   1.509       .  S
C1713      C3940   1.507       .  S
C1714      C2824   1.495       .  S
C1714      C2908   1.502       .  S
C1715      C1716   1.362       .  D
C1715      C2692   1.499       .  S
C1715      C2716   1.495       .  S
C1716      C1996   1.494       .  S
C1716      C2020   1.495       .  S
C1717      C1718   1.365       .  D
C1717      C3700   1.500       .  S
C1717      C3736   1.491       .  S
C1718      C2800   1.497       .  S
C1718      C2872   1.502       .  S
C1719      C1720   1.369       .  D
C1719      C3976   1.498       .  S
C1719      C4012   1.503       .  S
C1720      C3592   1.502       .  S
C1720      C3616   1.503       .  S
C1721      C1722   1.371       .  D
C1721      C3784   1.501       .  S
C1721      C3832   1.509       .  S
C1722      C3928   1.494       .  S
C1722      C4000   1.506       .  S
C1723      C1724   1.371       .  D
C1723      C3520   1.496       .  S
C1723      C3556   1.514       .  S
C1724      C2836   1.495       .  S
C1724      C2884   1.512       .  S
C1725      C1726   1.370       .  D
C1725      C3364   1.499       .  S
C1725      C3388   1.512       .  S
C1726      C1900   1.507       .  S
C1726      C1924   1.498       .  S
C1727      C1728   1.368       .  D
C1727      C3760   1.493       .  S
C1727      C3796   1.506       .  S
C1728      C3544   1.507       .  S
C1728      C3640   1.491       .  S
C1729      C1730   1.406       .  A
C1729      C1734   1.416       .  A
C1730      H1735   1.086       .  S
C1730      C1731   1.381       .  A
C1731      C1732   1.411       .  A
C1731      C1738   1.445       .  S
C1732      C1733   1.415       .  A
C1733      H1736   1.083       .  S
C1733      C1734   1.420       .  A
C1734      C1737   1.440       .  S
C1737      N1739   1.157       .  T
C1738      N1740   1.158       .  T
C1741      C1742   1.402       .  A
C1741      C1746   1.416       .  A
C1742      H1747   1.085       .  S
C1742      C1743   1.406       .  A
C1743      C1744   1.414       .  A
C1743      C1750   1.441       .  S
C1744      C1745   1.406       .  A
C1745      H1748   1.084       .  S
C1745      C1746   1.407       .  A
C1746      C1749   1.444       .  S
C1749      N1751   1.157       .  T
C1750      N1752   1.157       .  T
C1753      C1754   1.398       .  A
C1753      C1758   1.404       .  A
C1754      H1759   1.086       .  S
C1754      C1755   1.404       .  A
C1755      C1756   1.423       .  A
C1755      C1762   1.439       .  S
C1756      C1757   1.411       .  A
C1757      H1760   1.085       .  S
C1757      C1758   1.403       .  A
C1758      C1761   1.442       .  S
C1761      N1763   1.157       .  T
C1762      N1764   1.157       .  T
C1765      C1766   1.402       .  A
C1765      C1770   1.409       .  A
C1766      H1771   1.085       .  S
C1766      C1767   1.403       .  A
C1767      C1768   1.414       .  A
C1767      C1774   1.443       .  S
C1768      C1769   1.404       .  A
C1769      H1772   1.080       .  S
C1769      C1770   1.398       .  A
C1770      C1773   1.444       .  S
C1773      N1775   1.157       .  T
C1774      N1776   1.157       .  T
C1777      C1778   1.400       .  A
C1777      C1782   1.404       .  A
C1778      H1783   1.085       .  S
C1778      C1779   1.407       .  A
C1779      C1780   1.422       .  A
C1779      C1786   1.439       .  S
C1780      C1781   1.412       .  A
C1781      H1784   1.085       .  S
C1781      C1782   1.403       .  A
C1782      C1785   1.442       .  S
C1785      N1787   1.157       .  T
C1786      N1788   1.157       .  T
C1789      C1790   1.407       .  A
C1789      C1794   1.413       .  A
C1790      H1795   1.084       .  S
C1790      C1791   1.412       .  A
C1791      C1792   1.420       .  A
C1791      C1798   1.442       .  S
C1792      C1793   1.409       .  A
C1793      H1796   1.085       .  S
C1793      C1794   1.403       .  A
C1794      C1797   1.444       .  S
C1797      N1799   1.157       .  T
C1798      N1800   1.157       .  T
C1801      C1802   1.403       .  A
C1801      C1806   1.411       .  A
C1802      H1807   1.086       .  S
C1802      C1803   1.393       .  A
C1803      C1804   1.415       .  A
C1803      C1810   1.443       .  S
C1804      C1805   1.409       .  A
C1805      H1808   1.084       .  S
C1805      C1806   1.412       .  A
C1806      C1809   1.441       .  S
C1809      N1811   1.157       .  T
C1810      N1812   1.158       .  T
C1813      C1814   1.404       .  A
C1813      C1818   1.414       .  A
C1814      H1819   1.086       .  S
C1814      C1815   1.380       .  A
C1815      C1816   1.411       .  A
C1815      C1822   1.444       .  S
C1816      C1817   1.414       .  A
C1817      H1820   1.083       .  S
C1817      C1818   1.416       .  A
C1818      C1821   1.441       .  S
C1821      N1823   1.157       .  T
C1822      N1824   1.158       .  T
C1825      C1826   1.401       .  A
C1825      C1830   1.408       .  A
C1826      H1831   1.086       .  S
C1826      C1827   1.400       .  A
C1827      C1828   1.416       .  A
C1827      C1834   1.439       .  S
C1828      C1829   1.411       .  A
C1829      H1832   1.082       .  S
C1829      C1830   1.410       .  A
C1830      C1833   1.442       .  S
C1833      N1835   1.157       .  T
C1834      N1836   1.156       .  T
C1837      C1838   1.408       .  A
C1837      C1842   1.417       .  A
C1838      H1843   1.084       .  S
C1838      C1839   1.413       .  A
C1839      C1840   1.413       .  A
C1839      C1846   1.440       .  S
C1840      C1841   1.396       .  A
C1841      H1844   1.084       .  S
C1841      C1842   1.387       .  A
C1842      C1845   1.449       .  S
C1845      N1847   1.157       .  T
C1846      N1848   1.157       .  T
C1849      C1850   1.410       .  A
C1849      C1854   1.410       .  A
C1850      H1855   1.083       .  S
C1850      C1851   1.423       .  A
C1851      C1852   1.431       .  A
C1851      C1858   1.439       .  S
C1852      C1853   1.404       .  A
C1853      H1856   1.077       .  S
C1853      C1854   1.370       .  A
C1854      C1857   1.450       .  S
C1857      N1859   1.157       .  T
C1858      N1860   1.157       .  T
C1861      C1862   1.408       .  A
C1861      C1866   1.412       .  A
C1862      H1867   1.084       .  S
C1862      C1863   1.413       .  A
C1863      C1864   1.414       .  A
C1863      C1870   1.441       .  S
C1864      C1865   1.394       .  A
C1865      H1868   1.079       .  S
C1865      C1866   1.387       .  A
C1866      C1869   1.447       .  S
C1869      N1871   1.157       .  T
C1870      N1872   1.157       .  T
C1873      C1874   1.407       .  A
C1873      C1878   1.418       .  A
C1874      H1879   1.084       .  S
C1874      C1875   1.410       .  A
C1875      C1876   1.411       .  A
C1875      C1882   1.441       .  S
C1876      C1877   1.399       .  A
C1877      H1880   1.085       .  S
C1877      C1878   1.393       .  A
C1878      C1881   1.447       .  S
C1881      N1883   1.157       .  T
C1882      N1884   1.157       .  T
C1885      C1886   1.399       .  A
C1885      C1890   1.406       .  A
C1886      H1891   1.086       .  S
C1886      C1887   1.400       .  A
C1887      C1888   1.419       .  A
C1887      C1894   1.438       .  S
C1888      C1889   1.412       .  A
C1889      H1892   1.084       .  S
C1889      C1890   1.404       .  A
C1890      C1893   1.443       .  S
C1893      N1895   1.157       .  T
C1894      N1896   1.157       .  T
C1897      C1898   1.404       .  A
C1897      C1902   1.414       .  A
C1898      H1903   1.084       .  S
C1898      C1899   1.410       .  A
C1899      C1900   1.415       .  A
C1899      C1906   1.442       .  S
C1900      C1901   1.403       .  A
C1901      H1904   1.078       .  S
C1901      C1902   1.404       .  A
C1902      C1905   1.444       .  S
C1905      N1907   1.157       .  T
C1906      N1908   1.157       .  T
C1909      C1910   1.402       .  A
C1909      C1914   1.415       .  A
C1910      H1915   1.085       .  S
C1910      C1911   1.405       .  A
C1911      C1912   1.419       .  A
C1911      C1918   1.444       .  S
C1912      C1913   1.407       .  A
C1913      H1916   1.084       .  S
C1913      C1914   1.405       .  A
C1914      C1917   1.444       .  S
C1917      N1919   1.157       .  T
C1918      N1920   1.157       .  T
C1921      C1922   1.404       .  A
C1921      C1926   1.413       .  A
C1922      H1927   1.086       .  S
C1922      C1923   1.393       .  A
C1923      C1924   1.412       .  A
C1923      C1930   1.443       .  S
C1924      C1925   1.409       .  A
C1925      H1928   1.082       .  S
C1925      C1926   1.412       .  A
C1926      C1929   1.442       .  S
C1929      N1931   1.157       .  T
C1930      N1932   1.158       .  T
C1933      C1934   1.412       .  A
C1933      C1938   1.419       .  A
C1934      H1939   1.083       .  S
C1934      C1935   1.377       .  A
C1935      C1936   1.403       .  A
C1935      C1942   1.445       .  S
C1936      C1937   1.416       .  A
C1937      H1940   1.083       .  S
C1937      C1938   1.421       .  A
C1938      C1941   1.440       .  S
C1941      N1943   1.157       .  T
C1942      N1944   1.157       .  T
C1945      C1946   1.408       .  A
C1945      C1950   1.411       .  A
C1946      H1951   1.083       .  S
C1946      C1947   1.420       .  A
C1947      C1948   1.427       .  A
C1947      C1954   1.440       .  S
C1948      C1949   1.408       .  A
C1949      H1952   1.080       .  S
C1949      C1950   1.377       .  A
C1950      C1953   1.449       .  S
C1953      N1955   1.157       .  T
C1954      N1956   1.157       .  T
C1957      C1958   1.404       .  A
C1957      C1962   1.417       .  A
C1958      H1963   1.081       .  S
C1958      C1959   1.399       .  A
C1959      C1960   1.414       .  A
C1959      C1966   1.445       .  S
C1960      C1961   1.401       .  A
C1961      H1964   1.084       .  S
C1961      C1962   1.408       .  A
C1962      C1965   1.440       .  S
C1965      N1967   1.157       .  T
C1966      N1968   1.157       .  T
C1969      C1970   1.397       .  A
C1969      C1974   1.405       .  A
C1970      H1975   1.086       .  S
C1970      C1971   1.403       .  A
C1971      C1972   1.425       .  A
C1971      C1978   1.438       .  S
C1972      C1973   1.414       .  A
C1973      H1976   1.085       .  S
C1973      C1974   1.406       .  A
C1974      C1977   1.442       .  S
C1977      N1979   1.157       .  T
C1978      N1980   1.157       .  T
C1981      C1982   1.404       .  A
C1981      C1986   1.415       .  A
C1982      H1987   1.086       .  S
C1982      C1983   1.390       .  A
C1983      C1984   1.412       .  A
C1983      C1990   1.444       .  S
C1984      C1985   1.409       .  A
C1985      H1988   1.084       .  S
C1985      C1986   1.413       .  A
C1986      C1989   1.442       .  S
C1989      N1991   1.157       .  T
C1990      N1992   1.157       .  T
C1993      C1994   1.404       .  A
C1993      C1998   1.415       .  A
C1994      H1999   1.085       .  S
C1994      C1995   1.397       .  A
C1995      C1996   1.413       .  A
C1995      C2002   1.443       .  S
C1996      C1997   1.404       .  A
C1997      H2000   1.082       .  S
C1997      C1998   1.406       .  A
C1998      C2001   1.443       .  S
C2001      N2003   1.157       .  T
C2002      N2004   1.157       .  T
C2005      C2006   1.397       .  A
C2005      C2010   1.403       .  A
C2006      H2011   1.086       .  S
C2006      C2007   1.402       .  A
C2007      C2008   1.425       .  A
C2007      C2014   1.440       .  S
C2008      C2009   1.411       .  A
C2009      H2012   1.085       .  S
C2009      C2010   1.403       .  A
C2010      C2013   1.442       .  S
C2013      N2015   1.157       .  T
C2014      N2016   1.157       .  T
C2017      C2018   1.402       .  A
C2017      C2022   1.413       .  A
C2018      H2023   1.084       .  S
C2018      C2019   1.406       .  A
C2019      C2020   1.413       .  A
C2019      C2026   1.442       .  S
C2020      C2021   1.403       .  A
C2021      H2024   1.081       .  S
C2021      C2022   1.399       .  A
C2022      C2025   1.445       .  S
C2025      N2027   1.157       .  T
C2026      N2028   1.157       .  T
C2029      C2030   1.401       .  A
C2029      C2034   1.414       .  A
C2030      H2035   1.085       .  S
C2030      C2031   1.402       .  A
C2031      C2032   1.415       .  A
C2031      C2038   1.443       .  S
C2032      C2033   1.405       .  A
C2033      H2036   1.084       .  S
C2033      C2034   1.404       .  A
C2034      C2037   1.444       .  S
C2037      N2039   1.157       .  T
C2038      N2040   1.157       .  T
C2041      C2042   1.404       .  A
C2041      C2046   1.412       .  A
C2042      H2047   1.086       .  S
C2042      C2043   1.387       .  A
C2043      C2044   1.413       .  A
C2043      C2050   1.447       .  S
C2044      C2045   1.408       .  A
C2045      H2048   1.084       .  S
C2045      C2046   1.412       .  A
C2046      C2049   1.441       .  S
C2049      N2051   1.157       .  T
C2050      N2052   1.158       .  T
C2053      C2054   1.404       .  A
C2053      C2058   1.415       .  A
C2054      H2059   1.086       .  S
C2054      C2055   1.389       .  A
C2055      C2056   1.411       .  A
C2055      C2062   1.443       .  S
C2056      C2057   1.409       .  A
C2057      H2060   1.083       .  S
C2057      C2058   1.410       .  A
C2058      C2061   1.442       .  S
C2061      N2063   1.157       .  T
C2062      N2064   1.157       .  T
C2065      C2066   1.400       .  A
C2065      C2070   1.405       .  A
C2066      H2071   1.086       .  S
C2066      C2067   1.400       .  A
C2067      C2068   1.417       .  A
C2067      C2074   1.440       .  S
C2068      C2069   1.409       .  A
C2069      H2072   1.083       .  S
C2069      C2070   1.404       .  A
C2070      C2073   1.443       .  S
C2073      N2075   1.157       .  T
C2074      N2076   1.157       .  T
C2077      C2078   1.408       .  A
C2077      C2082   1.415       .  A
C2078      H2083   1.084       .  S
C2078      C2079   1.409       .  A
C2079      C2080   1.412       .  A
C2079      C2086   1.442       .  S
C2080      C2081   1.398       .  A
C2081      H2084   1.080       .  S
C2081      C2082   1.392       .  A
C2082      C2085   1.446       .  S
C2085      N2087   1.157       .  T
C2086      N2088   1.157       .  T
C2089      C2090   1.400       .  A
C2089      C2094   1.412       .  A
C2090      H2095   1.087       .  S
C2090      C2091   1.380       .  A
C2091      C2092   1.415       .  A
C2091      C2098   1.442       .  S
C2092      C2093   1.416       .  A
C2093      H2096   1.081       .  S
C2093      C2094   1.416       .  A
C2094      C2097   1.441       .  S
C2097      N2099   1.157       .  T
C2098      N2100   1.158       .  T
C2101      C2102   1.405       .  A
C2101      C2106   1.406       .  A
C2102      H2107   1.085       .  S
C2102      C2103   1.404       .  A
C2103      C2104   1.413       .  A
C2103      C2110   1.442       .  S
C2104      C2105   1.408       .  A
C2105      H2108   1.082       .  S
C2105      C2106   1.400       .  A
C2106      C2109   1.443       .  S
C2109      N2111   1.157       .  T
C2110      N2112   1.157       .  T
C2113      C2114   1.403       .  A
C2113      C2118   1.410       .  A
C2114      H2119   1.086       .  S
C2114      C2115   1.396       .  A
C2115      C2116   1.413       .  A
C2115      C2122   1.440       .  S
C2116      C2117   1.409       .  A
C2117      H2120   1.082       .  S
C2117      C2118   1.407       .  A
C2118      C2121   1.443       .  S
C2121      N2123   1.157       .  T
C2122      N2124   1.156       .  T
C2125      C2126   1.405       .  A
C2125      C2130   1.412       .  A
C2126      H2131   1.086       .  S
C2126      C2127   1.392       .  A
C2127      C2128   1.413       .  A
C2127      C2134   1.445       .  S
C2128      C2129   1.407       .  A
C2129      H2132   1.083       .  S
C2129      C2130   1.410       .  A
C2130      C2133   1.441       .  S
C2133      N2135   1.157       .  T
C2134      N2136   1.157       .  T
C2137      C2138   1.405       .  A
C2137      C2142   1.411       .  A
C2138      H2143   1.084       .  S
C2138      C2139   1.412       .  A
C2139      C2140   1.416       .  A
C2139      C2146   1.441       .  S
C2140      C2141   1.401       .  A
C2141      H2144   1.076       .  S
C2141      C2142   1.391       .  A
C2142      C2145   1.447       .  S
C2145      N2147   1.157       .  T
C2146      N2148   1.157       .  T
C2149      C2150   1.400       .  A
C2149      C2154   1.413       .  A
C2150      H2155   1.083       .  S
C2150      C2151   1.394       .  A
C2151      C2152   1.415       .  A
C2151      C2158   1.446       .  S
C2152      C2153   1.405       .  A
C2153      H2156   1.084       .  S
C2153      C2154   1.410       .  A
C2154      C2157   1.442       .  S
C2157      N2159   1.157       .  T
C2158      N2160   1.157       .  T
C2161      C2162   1.401       .  A
C2161      C2166   1.412       .  A
C2162      H2167   1.086       .  S
C2162      C2163   1.391       .  A
C2163      C2164   1.415       .  A
C2163      C2170   1.440       .  S
C2164      C2165   1.408       .  A
C2165      H2168   1.083       .  S
C2165      C2166   1.407       .  A
C2166      C2169   1.442       .  S
C2169      N2171   1.157       .  T
C2170      N2172   1.157       .  T
C2173      C2174   1.409       .  A
C2173      C2178   1.416       .  A
C2174      H2179   1.084       .  S
C2174      C2175   1.408       .  A
C2175      C2176   1.410       .  A
C2175      C2182   1.442       .  S
C2176      C2177   1.401       .  A
C2177      H2180   1.086       .  S
C2177      C2178   1.393       .  A
C2178      C2181   1.442       .  S
C2181      N2183   1.157       .  T
C2182      N2184   1.157       .  T
C2185      C2186   1.406       .  A
C2185      C2190   1.415       .  A
C2186      H2191   1.084       .  S
C2186      C2187   1.409       .  A
C2187      C2188   1.410       .  A
C2187      C2194   1.441       .  S
C2188      C2189   1.401       .  A
C2189      H2192   1.085       .  S
C2189      C2190   1.393       .  A
C2190      C2193   1.446       .  S
C2193      N2195   1.157       .  T
C2194      N2196   1.157       .  T
C2197      C2198   1.402       .  A
C2197      C2202   1.412       .  A
C2198      H2203   1.084       .  S
C2198      C2199   1.405       .  A
C2199      C2200   1.415       .  A
C2199      C2206   1.442       .  S
C2200      C2201   1.405       .  A
C2201      H2204   1.080       .  S
C2201      C2202   1.399       .  A
C2202      C2205   1.445       .  S
C2205      N2207   1.157       .  T
C2206      N2208   1.157       .  T
C2209      C2210   1.403       .  A
C2209      C2214   1.415       .  A
C2210      H2215   1.084       .  S
C2210      C2211   1.405       .  A
C2211      C2212   1.414       .  A
C2211      C2218   1.441       .  S
C2212      C2213   1.404       .  A
C2213      H2216   1.082       .  S
C2213      C2214   1.400       .  A
C2214      C2217   1.445       .  S
C2217      N2219   1.157       .  T
C2218      N2220   1.157       .  T
C2221      C2222   1.405       .  A
C2221      C2226   1.413       .  A
C2222      H2227   1.084       .  S
C2222      C2223   1.410       .  A
C2223      C2224   1.413       .  A
C2223      C2230   1.442       .  S
C2224      C2225   1.401       .  A
C2225      H2228   1.078       .  S
C2225      C2226   1.398       .  A
C2226      C2229   1.446       .  S
C2229      N2231   1.157       .  T
C2230      N2232   1.157       .  T
C2233      C2234   1.401       .  A
C2233      C2238   1.400       .  A
C2234      H2239   1.084       .  S
C2234      C2235   1.415       .  A
C2235      C2236   1.430       .  A
C2235      C2242   1.438       .  S
C2236      C2237   1.423       .  A
C2237      H2240   1.076       .  S
C2237      C2238   1.386       .  A
C2238      C2241   1.448       .  S
C2241      N2243   1.157       .  T
C2242      N2244   1.158       .  T
C2245      C2246   1.403       .  A
C2245      C2250   1.410       .  A
C2246      H2251   1.086       .  S
C2246      C2247   1.397       .  A
C2247      C2248   1.413       .  A
C2247      C2254   1.441       .  S
C2248      C2249   1.407       .  A
C2249      H2252   1.083       .  S
C2249      C2250   1.408       .  A
C2250      C2253   1.442       .  S
C2253      N2255   1.157       .  T
C2254      N2256   1.157       .  T
C2257      C2258   1.402       .  A
C2257      C2262   1.412       .  A
C2258      H2263   1.084       .  S
C2258      C2259   1.406       .  A
C2259      C2260   1.412       .  A
C2259      C2266   1.440       .  S
C2260      C2261   1.404       .  A
C2261      H2264   1.082       .  S
C2261      C2262   1.398       .  A
C2262      C2265   1.445       .  S
C2265      N2267   1.157       .  T
C2266      N2268   1.157       .  T
C2269      C2270   1.400       .  A
C2269      C2274   1.406       .  A
C2270      H2275   1.086       .  S
C2270      C2271   1.398       .  A
C2271      C2272   1.418       .  A
C2271      C2278   1.440       .  S
C2272      C2273   1.409       .  A
C2273      H2276   1.084       .  S
C2273      C2274   1.402       .  A
C2274      C2277   1.443       .  S
C2277      N2279   1.157       .  T
C2278      N2280   1.158       .  T
C2281      C2282   1.404       .  A
C2281      C2286   1.409       .  A
C2282      H2287   1.086       .  S
C2282      C2283   1.393       .  A
C2283      C2284   1.412       .  A
C2283      C2290   1.442       .  S
C2284      C2285   1.410       .  A
C2285      H2288   1.084       .  S
C2285      C2286   1.410       .  A
C2286      C2289   1.441       .  S
C2289      N2291   1.157       .  T
C2290      N2292   1.157       .  T
C2293      C2294   1.408       .  A
C2293      C2298   1.416       .  A
C2294      H2299   1.083       .  S
C2294      C2295   1.412       .  A
C2295      C2296   1.413       .  A
C2295      C2302   1.440       .  S
C2296      C2297   1.397       .  A
C2297      H2300   1.076       .  S
C2297      C2298   1.388       .  A
C2298      C2301   1.448       .  S
C2301      N2303   1.157       .  T
C2302      N2304   1.157       .  T
C2305      C2306   1.413       .  A
C2305      C2310   1.434       .  A
C2306      H2311   1.077       .  S
C2306      C2307   1.375       .  A
C2307      C2308   1.406       .  A
C2307      C2314   1.451       .  S
C2308      C2309   1.407       .  A
C2309      H2312   1.084       .  S
C2309      C2310   1.424       .  A
C2310      C2313   1.437       .  S
C2313      N2315   1.157       .  T
C2314      N2316   1.157       .  T
C2317      C2318   1.403       .  A
C2317      C2322   1.407       .  A
C2318      H2323   1.085       .  S
C2318      C2319   1.403       .  A
C2319      C2320   1.419       .  A
C2319      C2326   1.442       .  S
C2320      C2321   1.407       .  A
C2321      H2324   1.085       .  S
C2321      C2322   1.400       .  A
C2322      C2325   1.444       .  S
C2325      N2327   1.157       .  T
C2326      N2328   1.157       .  T
C2329      C2330   1.408       .  A
C2329      C2334   1.417       .  A
C2330      H2335   1.084       .  S
C2330      C2331   1.410       .  A
C2331      C2332   1.411       .  A
C2331      C2338   1.441       .  S
C2332      C2333   1.400       .  A
C2333      H2336   1.085       .  S
C2333      C2334   1.393       .  A
C2334      C2337   1.446       .  S
C2337      N2339   1.157       .  T
C2338      N2340   1.157       .  T
C2341      C2342   1.406       .  A
C2341      C2346   1.409       .  A
C2342      H2347   1.084       .  S
C2342      C2343   1.412       .  A
C2343      C2344   1.419       .  A
C2343      C2350   1.442       .  S
C2344      C2345   1.408       .  A
C2345      H2348   1.070       .  S
C2345      C2346   1.397       .  A
C2346      C2349   1.446       .  S
C2349      N2351   1.157       .  T
C2350      N2352   1.157       .  T
C2353      C2354   1.402       .  A
C2353      C2358   1.411       .  A
C2354      H2359   1.084       .  S
C2354      C2355   1.407       .  A
C2355      C2356   1.416       .  A
C2355      C2362   1.441       .  S
C2356      C2357   1.403       .  A
C2357      H2360   1.075       .  S
C2357      C2358   1.396       .  A
C2358      C2361   1.446       .  S
C2361      N2363   1.157       .  T
C2362      N2364   1.157       .  T
C2365      C2366   1.411       .  A
C2365      C2370   1.413       .  A
C2366      H2371   1.084       .  S
C2366      C2367   1.414       .  A
C2367      C2368   1.413       .  A
C2367      C2374   1.441       .  S
C2368      C2369   1.403       .  A
C2369      H2372   1.086       .  S
C2369      C2370   1.390       .  A
C2370      C2373   1.442       .  S
C2373      N2375   1.157       .  T
C2374      N2376   1.157       .  T
C2377      C2378   1.402       .  A
C2377      C2382   1.413       .  A
C2378      H2383   1.086       .  S
C2378      C2379   1.389       .  A
C2379      C2380   1.414       .  A
C2379      C2386   1.444       .  S
C2380      C2381   1.408       .  A
C2381      H2384   1.084       .  S
C2381      C2382   1.412       .  A
C2382      C2385   1.441       .  S
C2385      N2387   1.157       .  T
C2386      N2388   1.157       .  T
C2389      C2390   1.411       .  A
C2389      C2394   1.418       .  A
C2390      H2395   1.083       .  S
C2390      C2391   1.403       .  A
C2391      C2392   1.406       .  A
C2391      C2398   1.443       .  S
C2392      C2393   1.399       .  A
C2393      H2396   1.087       .  S
C2393      C2394   1.394       .  A
C2394      C2397   1.440       .  S
C2397      N2399   1.157       .  T
C2398      N2400   1.157       .  T
C2401      C2402   1.409       .  A
C2401      C2406   1.407       .  A
C2402      H2407   1.084       .  S
C2402      C2403   1.411       .  A
C2403      C2404   1.413       .  A
C2403      C2410   1.441       .  S
C2404      C2405   1.410       .  A
C2405      H2408   1.083       .  S
C2405      C2406   1.402       .  A
C2406      C2409   1.443       .  S
C2409      N2411   1.157       .  T
C2410      N2412   1.157       .  T
C2413      C2414   1.407       .  A
C2413      C2418   1.408       .  A
C2414      H2419   1.085       .  S
C2414      C2415   1.406       .  A
C2415      C2416   1.417       .  A
C2415      C2422   1.442       .  S
C2416      C2417   1.410       .  A
C2417      H2420   1.084       .  S
C2417      C2418   1.403       .  A
C2418      C2421   1.444       .  S
C2421      N2423   1.157       .  T
C2422      N2424   1.157       .  T
C2425      C2426   1.405       .  A
C2425      C2430   1.413       .  A
C2426      H2431   1.084       .  S
C2426      C2427   1.408       .  A
C2427      C2428   1.411       .  A
C2427      C2434   1.441       .  S
C2428      C2429   1.402       .  A
C2429      H2432   1.080       .  S
C2429      C2430   1.395       .  A
C2430      C2433   1.446       .  S
C2433      N2435   1.157       .  T
C2434      N2436   1.157       .  T
C2437      C2438   1.405       .  A
C2437      C2442   1.413       .  A
C2438      H2443   1.086       .  S
C2438      C2439   1.389       .  A
C2439      C2440   1.411       .  A
C2439      C2446   1.445       .  S
C2440      C2441   1.408       .  A
C2441      H2444   1.083       .  S
C2441      C2442   1.408       .  A
C2442      C2445   1.442       .  S
C2445      N2447   1.157       .  T
C2446      N2448   1.157       .  T
C2449      C2450   1.407       .  A
C2449      C2454   1.415       .  A
C2450      H2455   1.084       .  S
C2450      C2451   1.411       .  A
C2451      C2452   1.413       .  A
C2451      C2458   1.440       .  S
C2452      C2453   1.400       .  A
C2453      H2456   1.081       .  S
C2453      C2454   1.389       .  A
C2454      C2457   1.447       .  S
C2457      N2459   1.157       .  T
C2458      N2460   1.157       .  T
C2461      C2462   1.405       .  A
C2461      C2466   1.409       .  A
C2462      H2467   1.086       .  S
C2462      C2463   1.393       .  A
C2463      C2464   1.411       .  A
C2463      C2470   1.444       .  S
C2464      C2465   1.410       .  A
C2465      H2468   1.084       .  S
C2465      C2466   1.411       .  A
C2466      C2469   1.442       .  S
C2469      N2471   1.157       .  T
C2470      N2472   1.157       .  T
C2473      C2474   1.399       .  A
C2473      C2478   1.407       .  A
C2474      H2479   1.086       .  S
C2474      C2475   1.399       .  A
C2475      C2476   1.420       .  A
C2475      C2482   1.437       .  S
C2476      C2477   1.413       .  A
C2477      H2480   1.083       .  S
C2477      C2478   1.407       .  A
C2478      C2481   1.443       .  S
C2481      N2483   1.157       .  T
C2482      N2484   1.157       .  T
C2485      C2486   1.404       .  A
C2485      C2490   1.413       .  A
C2486      H2491   1.083       .  S
C2486      C2487   1.399       .  A
C2487      C2488   1.413       .  A
C2487      C2494   1.445       .  S
C2488      C2489   1.404       .  A
C2489      H2492   1.084       .  S
C2489      C2490   1.409       .  A
C2490      C2493   1.440       .  S
C2493      N2495   1.157       .  T
C2494      N2496   1.157       .  T
C2497      C2498   1.405       .  A
C2497      C2502   1.411       .  A
C2498      H2503   1.086       .  S
C2498      C2499   1.390       .  A
C2499      C2500   1.411       .  A
C2499      C2506   1.446       .  S
C2500      C2501   1.410       .  A
C2501      H2504   1.084       .  S
C2501      C2502   1.413       .  A
C2502      C2505   1.441       .  S
C2505      N2507   1.157       .  T
C2506      N2508   1.157       .  T
C2509      C2510   1.397       .  A
C2509      C2514   1.413       .  A
C2510      H2515   1.076       .  S
C2510      C2511   1.390       .  A
C2511      C2512   1.417       .  A
C2511      C2518   1.447       .  S
C2512      C2513   1.407       .  A
C2513      H2516   1.084       .  S
C2513      C2514   1.412       .  A
C2514      C2517   1.440       .  S
C2517      N2519   1.157       .  T
C2518      N2520   1.157       .  T
C2521      C2522   1.405       .  A
C2521      C2526   1.413       .  A
C2522      H2527   1.084       .  S
C2522      C2523   1.410       .  A
C2523      C2524   1.415       .  A
C2523      C2530   1.440       .  S
C2524      C2525   1.400       .  A
C2525      H2528   1.074       .  S
C2525      C2526   1.392       .  A
C2526      C2529   1.447       .  S
C2529      N2531   1.157       .  T
C2530      N2532   1.157       .  T
C2533      C2534   1.406       .  A
C2533      C2538   1.412       .  A
C2534      H2539   1.086       .  S
C2534      C2535   1.397       .  A
C2535      C2536   1.412       .  A
C2535      C2542   1.443       .  S
C2536      C2537   1.407       .  A
C2537      H2540   1.082       .  S
C2537      C2538   1.409       .  A
C2538      C2541   1.442       .  S
C2541      N2543   1.157       .  T
C2542      N2544   1.158       .  T
C2545      C2546   1.399       .  A
C2545      C2550   1.412       .  A
C2546      H2551   1.083       .  S
C2546      C2547   1.393       .  A
C2547      C2548   1.416       .  A
C2547      C2554   1.446       .  S
C2548      C2549   1.408       .  A
C2549      H2552   1.084       .  S
C2549      C2550   1.412       .  A
C2550      C2553   1.440       .  S
C2553      N2555   1.157       .  T
C2554      N2556   1.157       .  T
C2557      C2558   1.402       .  A
C2557      C2562   1.409       .  A
C2558      H2563   1.086       .  S
C2558      C2559   1.397       .  A
C2559      C2560   1.415       .  A
C2559      C2566   1.440       .  S
C2560      C2561   1.410       .  A
C2561      H2564   1.084       .  S
C2561      C2562   1.407       .  A
C2562      C2565   1.443       .  S
C2565      N2567   1.157       .  T
C2566      N2568   1.156       .  T
C2569      C2570   1.406       .  A
C2569      C2574   1.413       .  A
C2570      H2575   1.086       .  S
C2570      C2571   1.391       .  A
C2571      C2572   1.410       .  A
C2571      C2578   1.445       .  S
C2572      C2573   1.411       .  A
C2573      H2576   1.084       .  S
C2573      C2574   1.415       .  A
C2574      C2577   1.441       .  S
C2577      N2579   1.157       .  T
C2578      N2580   1.157       .  T
C2581      C2582   1.412       .  A
C2581      C2586   1.417       .  A
C2582      H2587   1.083       .  S
C2582      C2583   1.407       .  A
C2583      C2584   1.408       .  A
C2583      C2590   1.442       .  S
C2584      C2585   1.404       .  A
C2585      H2588   1.086       .  S
C2585      C2586   1.401       .  A
C2586      C2589   1.439       .  S
C2589      N2591   1.157       .  T
C2590      N2592   1.157       .  T
C2593      C2594   1.408       .  A
C2593      C2598   1.417       .  A
C2594      H2599   1.084       .  S
C2594      C2595   1.414       .  A
C2595      C2596   1.413       .  A
C2595      C2602   1.441       .  S
C2596      C2597   1.396       .  A
C2597      H2600   1.083       .  S
C2597      C2598   1.390       .  A
C2598      C2601   1.447       .  S
C2601      N2603   1.157       .  T
C2602      N2604   1.157       .  T
C2605      C2606   1.401       .  A
C2605      C2610   1.407       .  A
C2606      H2611   1.086       .  S
C2606      C2607   1.400       .  A
C2607      C2608   1.420       .  A
C2607      C2614   1.439       .  S
C2608      C2609   1.412       .  A
C2609      H2612   1.084       .  S
C2609      C2610   1.406       .  A
C2610      C2613   1.443       .  S
C2613      N2615   1.157       .  T
C2614      N2616   1.157       .  T
C2617      C2618   1.403       .  A
C2617      C2622   1.411       .  A
C2618      H2623   1.086       .  S
C2618      C2619   1.392       .  A
C2619      C2620   1.414       .  A
C2619      C2626   1.441       .  S
C2620      C2621   1.409       .  A
C2621      H2624   1.083       .  S
C2621      C2622   1.412       .  A
C2622      C2625   1.442       .  S
C2625      N2627   1.157       .  T
C2626      N2628   1.157       .  T
C2629      C2630   1.404       .  A
C2629      C2634   1.409       .  A
C2630      H2635   1.084       .  S
C2630      C2631   1.409       .  A
C2631      C2632   1.415       .  A
C2631      C2638   1.441       .  S
C2632      C2633   1.402       .  A
C2633      H2636   1.073       .  S
C2633      C2634   1.390       .  A
C2634      C2637   1.447       .  S
C2637      N2639   1.157       .  T
C2638      N2640   1.157       .  T
C2641      C2642   1.409       .  A
C2641      C2646   1.412       .  A
C2642      H2647   1.084       .  S
C2642      C2643   1.410       .  A
C2643      C2644   1.411       .  A
C2643      C2650   1.442       .  S
C2644      C2645   1.405       .  A
C2645      H2648   1.086       .  S
C2645      C2646   1.395       .  A
C2646      C2649   1.444       .  S
C2649      N2651   1.157       .  T
C2650      N2652   1.157       .  T
C2653      C2654   1.404       .  A
C2653      C2658   1.413       .  A
C2654      H2659   1.084       .  S
C2654      C2655   1.407       .  A
C2655      C2656   1.413       .  A
C2655      C2662   1.441       .  S
C2656      C2657   1.402       .  A
C2657      H2660   1.079       .  S
C2657      C2658   1.396       .  A
C2658      C2661   1.446       .  S
C2661      N2663   1.157       .  T
C2662      N2664   1.157       .  T
C2665      C2666   1.411       .  A
C2665      C2670   1.414       .  A
C2666      H2671   1.082       .  S
C2666      C2667   1.412       .  A
C2667      C2668   1.412       .  A
C2667      C2674   1.442       .  S
C2668      C2669   1.401       .  A
C2669      H2672   1.087       .  S
C2669      C2670   1.389       .  A
C2670      C2673   1.441       .  S
C2673      N2675   1.156       .  T
C2674      N2676   1.157       .  T
C2677      C2678   1.407       .  A
C2677      C2682   1.413       .  A
C2678      H2683   1.084       .  S
C2678      C2679   1.413       .  A
C2679      C2680   1.413       .  A
C2679      C2686   1.441       .  S
C2680      C2681   1.399       .  A
C2681      H2684   1.081       .  S
C2681      C2682   1.388       .  A
C2682      C2685   1.447       .  S
C2685      N2687   1.157       .  T
C2686      N2688   1.157       .  T
C2689      C2690   1.405       .  A
C2689      C2694   1.416       .  A
C2690      H2695   1.084       .  S
C2690      C2691   1.410       .  A
C2691      C2692   1.413       .  A
C2691      C2698   1.440       .  S
C2692      C2693   1.400       .  A
C2693      H2696   1.080       .  S
C2693      C2694   1.396       .  A
C2694      C2697   1.446       .  S
C2697      N2699   1.157       .  T
C2698      N2700   1.157       .  T
C2701      C2702   1.401       .  A
C2701      C2706   1.411       .  A
C2702      H2707   1.084       .  S
C2702      C2703   1.406       .  A
C2703      C2704   1.418       .  A
C2703      C2710   1.442       .  S
C2704      C2705   1.405       .  A
C2705      H2708   1.075       .  S
C2705      C2706   1.401       .  A
C2706      C2709   1.445       .  S
C2709      N2711   1.157       .  T
C2710      N2712   1.157       .  T
C2713      C2714   1.405       .  A
C2713      C2718   1.416       .  A
C2714      H2719   1.084       .  S
C2714      C2715   1.407       .  A
C2715      C2716   1.411       .  A
C2715      C2722   1.440       .  S
C2716      C2717   1.402       .  A
C2717      H2720   1.083       .  S
C2717      C2718   1.398       .  A
C2718      C2721   1.446       .  S
C2721      N2723   1.157       .  T
C2722      N2724   1.157       .  T
C2725      C2726   1.403       .  A
C2725      C2730   1.412       .  A
C2726      H2731   1.084       .  S
C2726      C2727   1.407       .  A
C2727      C2728   1.413       .  A
C2727      C2734   1.442       .  S
C2728      C2729   1.403       .  A
C2729      H2732   1.080       .  S
C2729      C2730   1.399       .  A
C2730      C2733   1.445       .  S
C2733      N2735   1.157       .  T
C2734      N2736   1.157       .  T
C2737      C2738   1.407       .  A
C2737      C2742   1.416       .  A
C2738      H2743   1.085       .  S
C2738      C2739   1.394       .  A
C2739      C2740   1.413       .  A
C2739      C2746   1.443       .  S
C2740      C2741   1.407       .  A
C2741      H2744   1.082       .  S
C2741      C2742   1.410       .  A
C2742      C2745   1.442       .  S
C2745      N2747   1.157       .  T
C2746      N2748   1.158       .  T
C2749      C2750   1.403       .  A
C2749      C2754   1.416       .  A
C2750      H2755   1.084       .  S
C2750      C2751   1.408       .  A
C2751      C2752   1.413       .  A
C2751      C2758   1.442       .  S
C2752      C2753   1.400       .  A
C2753      H2756   1.082       .  S
C2753      C2754   1.400       .  A
C2754      C2757   1.445       .  S
C2757      N2759   1.157       .  T
C2758      N2760   1.157       .  T
C2761      C2762   1.406       .  A
C2761      C2766   1.412       .  A
C2762      H2767   1.086       .  S
C2762      C2763   1.392       .  A
C2763      C2764   1.413       .  A
C2763      C2770   1.446       .  S
C2764      C2765   1.408       .  A
C2765      H2768   1.084       .  S
C2765      C2766   1.411       .  A
C2766      C2769   1.441       .  S
C2769      N2771   1.157       .  T
C2770      N2772   1.158       .  T
C2773      C2774   1.402       .  A
C2773      C2778   1.410       .  A
C2774      H2779   1.078       .  S
C2774      C2775   1.393       .  A
C2775      C2776   1.409       .  A
C2775      C2782   1.445       .  S
C2776      C2777   1.404       .  A
C2777      H2780   1.084       .  S
C2777      C2778   1.402       .  A
C2778      C2781   1.442       .  S
C2781      N2783   1.157       .  T
C2782      N2784   1.157       .  T
C2785      C2786   1.408       .  A
C2785      C2790   1.414       .  A
C2786      H2791   1.082       .  S
C2786      C2787   1.409       .  A
C2787      C2788   1.413       .  A
C2787      C2794   1.442       .  S
C2788      C2789   1.405       .  A
C2789      H2792   1.086       .  S
C2789      C2790   1.394       .  A
C2790      C2793   1.443       .  S
C2793      N2795   1.158       .  T
C2794      N2796   1.157       .  T
C2797      C2798   1.405       .  A
C2797      C2802   1.413       .  A
C2798      H2803   1.086       .  S
C2798      C2799   1.389       .  A
C2799      C2800   1.412       .  A
C2799      C2806   1.444       .  S
C2800      C2801   1.409       .  A
C2801      H2804   1.084       .  S
C2801      C2802   1.413       .  A
C2802      C2805   1.441       .  S
C2805      N2807   1.157       .  T
C2806      N2808   1.158       .  T
C2809      C2810   1.407       .  A
C2809      C2814   1.415       .  A
C2810      H2815   1.084       .  S
C2810      C2811   1.413       .  A
C2811      C2812   1.416       .  A
C2811      C2818   1.441       .  S
C2812      C2813   1.397       .  A
C2813      H2816   1.075       .  S
C2813      C2814   1.392       .  A
C2814      C2817   1.447       .  S
C2817      N2819   1.157       .  T
C2818      N2820   1.157       .  T
C2821      C2822   1.406       .  A
C2821      C2826   1.416       .  A
C2822      H2827   1.084       .  S
C2822      C2823   1.411       .  A
C2823      C2824   1.412       .  A
C2823      C2830   1.441       .  S
C2824      C2825   1.401       .  A
C2825      H2828   1.085       .  S
C2825      C2826   1.397       .  A
C2826      C2829   1.446       .  S
C2829      N2831   1.157       .  T
C2830      N2832   1.157       .  T
C2833      C2834   1.408       .  A
C2833      C2838   1.415       .  A
C2834      H2839   1.086       .  S
C2834      C2835   1.388       .  A
C2835      C2836   1.404       .  A
C2835      C2842   1.445       .  S
C2836      C2837   1.411       .  A
C2837      H2840   1.083       .  S
C2837      C2838   1.415       .  A
C2838      C2841   1.441       .  S
C2841      N2843   1.157       .  T
C2842      N2844   1.157       .  T
C2845      C2846   1.409       .  A
C2845      C2850   1.415       .  A
C2846      H2851   1.081       .  S
C2846      C2847   1.410       .  A
C2847      C2848   1.408       .  A
C2847      C2854   1.442       .  S
C2848      C2849   1.403       .  A
C2849      H2852   1.086       .  S
C2849      C2850   1.398       .  A
C2850      C2853   1.440       .  S
C2853      N2855   1.156       .  T
C2854      N2856   1.157       .  T
C2857      C2858   1.398       .  A
C2857      C2862   1.407       .  A
C2858      H2863   1.086       .  S
C2858      C2859   1.404       .  A
C2859      C2860   1.424       .  A
C2859      C2866   1.439       .  S
C2860      C2861   1.411       .  A
C2861      H2864   1.085       .  S
C2861      C2862   1.407       .  A
C2862      C2865   1.442       .  S
C2865      N2867   1.157       .  T
C2866      N2868   1.157       .  T
C2869      C2870   1.402       .  A
C2869      C2874   1.410       .  A
C2870      H2875   1.085       .  S
C2870      C2871   1.404       .  A
C2871      C2872   1.414       .  A
C2871      C2878   1.442       .  S
C2872      C2873   1.405       .  A
C2873      H2876   1.081       .  S
C2873      C2874   1.400       .  A
C2874      C2877   1.444       .  S
C2877      N2879   1.157       .  T
C2878      N2880   1.157       .  T
C2881      C2882   1.401       .  A
C2881      C2886   1.409       .  A
C2882      H2887   1.085       .  S
C2882      C2883   1.408       .  A
C2883      C2884   1.421       .  A
C2883      C2890   1.438       .  S
C2884      C2885   1.409       .  A
C2885      H2888   1.083       .  S
C2885      C2886   1.405       .  A
C2886      C2889   1.443       .  S
C2889      N2891   1.157       .  T
C2890      N2892   1.157       .  T
C2893      C2894   1.417       .  A
C2893      C2898   1.428       .  A
C2894      H2899   1.083       .  S
C2894      C2895   1.419       .  A
C2895      C2896   1.414       .  A
C2895      C2902   1.441       .  S
C2896      C2897   1.385       .  A
C2897      H2900   1.082       .  S
C2897      C2898   1.374       .  A
C2898      C2901   1.441       .  S
C2901      N2903   1.155       .  T
C2902      N2904   1.157       .  T
C2905      C2906   1.409       .  A
C2905      C2910   1.412       .  A
C2906      H2911   1.085       .  S
C2906      C2907   1.403       .  A
C2907      C2908   1.412       .  A
C2907      C2914   1.443       .  S
C2908      C2909   1.407       .  A
C2909      H2912   1.082       .  S
C2909      C2910   1.406       .  A
C2910      C2913   1.443       .  S
C2913      N2915   1.157       .  T
C2914      N2916   1.157       .  T
C2917      C2918   1.405       .  A
C2917      C2922   1.415       .  A
C2918      H2923   1.084       .  S
C2918      C2919   1.411       .  A
C2919      C2920   1.415       .  A
C2919      C2926   1.442       .  S
C2920      C2921   1.403       .  A
C2921      H2924   1.079       .  S
C2921      C2922   1.400       .  A
C2922      C2925   1.446       .  S
C2925      N2927   1.157       .  T
C2926      N2928   1.157       .  T
C2929      C2930   1.405       .  A
C2929      C2934   1.416       .  A
C2930      H2935   1.084       .  S
C2930      C2931   1.410       .  A
C2931      C2932   1.414       .  A
C2931      C2938   1.442       .  S
C2932      C2933   1.398       .  A
C2933      H2936   1.080       .  S
C2933      C2934   1.392       .  A
C2934      C2937   1.447       .  S
C2937      N2939   1.157       .  T
C2938      N2940   1.157       .  T
C2941      C2942   1.405       .  A
C2941      C2946   1.416       .  A
C2942      H2947   1.084       .  S
C2942      C2943   1.408       .  A
C2943      C2944   1.411       .  A
C2943      C2950   1.440       .  S
C2944      C2945   1.401       .  A
C2945      H2948   1.081       .  S
C2945      C2946   1.395       .  A
C2946      C2949   1.446       .  S
C2949      N2951   1.157       .  T
C2950      N2952   1.157       .  T
C2953      C2954   1.406       .  A
C2953      C2958   1.412       .  A
C2954      H2959   1.086       .  S
C2954      C2955   1.397       .  A
C2955      C2956   1.412       .  A
C2955      C2962   1.443       .  S
C2956      C2957   1.408       .  A
C2957      H2960   1.083       .  S
C2957      C2958   1.412       .  A
C2958      C2961   1.441       .  S
C2961      N2963   1.157       .  T
C2962      N2964   1.157       .  T
C2965      C2966   1.407       .  A
C2965      C2970   1.408       .  A
C2966      H2971   1.085       .  S
C2966      C2967   1.406       .  A
C2967      C2968   1.415       .  A
C2967      C2974   1.441       .  S
C2968      C2969   1.412       .  A
C2969      H2972   1.083       .  S
C2969      C2970   1.403       .  A
C2970      C2973   1.443       .  S
C2973      N2975   1.157       .  T
C2974      N2976   1.157       .  T
C2977      C2978   1.407       .  A
C2977      C2982   1.413       .  A
C2978      H2983   1.084       .  S
C2978      C2979   1.412       .  A
C2979      C2980   1.413       .  A
C2979      C2986   1.441       .  S
C2980      C2981   1.397       .  A
C2981      H2984   1.082       .  S
C2981      C2982   1.387       .  A
C2982      C2985   1.447       .  S
C2985      N2987   1.157       .  T
C2986      N2988   1.157       .  T
C2989      C2990   1.403       .  A
C2989      C2994   1.408       .  A
C2990      H2995   1.084       .  S
C2990      C2991   1.410       .  A
C2991      C2992   1.417       .  A
C2991      C2998   1.442       .  S
C2992      C2993   1.402       .  A
C2993      H2996   1.071       .  S
C2993      C2994   1.390       .  A
C2994      C2997   1.447       .  S
C2997      N2999   1.157       .  T
C2998      N3000   1.157       .  T
C3001      C3002   1.404       .  A
C3001      C3006   1.413       .  A
C3002      H3007   1.086       .  S
C3002      C3003   1.392       .  A
C3003      C3004   1.413       .  A
C3003      C3010   1.443       .  S
C3004      C3005   1.407       .  A
C3005      H3008   1.082       .  S
C3005      C3006   1.408       .  A
C3006      C3009   1.442       .  S
C3009      N3011   1.157       .  T
C3010      N3012   1.158       .  T
C3013      C3014   1.405       .  A
C3013      C3018   1.416       .  A
C3014      H3019   1.084       .  S
C3014      C3015   1.408       .  A
C3015      C3016   1.412       .  A
C3015      C3022   1.441       .  S
C3016      C3017   1.400       .  A
C3017      H3020   1.085       .  S
C3017      C3018   1.391       .  A
C3018      C3021   1.447       .  S
C3021      N3023   1.157       .  T
C3022      N3024   1.157       .  T
C3025      C3026   1.403       .  A
C3025      C3030   1.413       .  A
C3026      H3031   1.084       .  S
C3026      C3027   1.407       .  A
C3027      C3028   1.412       .  A
C3027      C3034   1.442       .  S
C3028      C3029   1.402       .  A
C3029      H3032   1.080       .  S
C3029      C3030   1.397       .  A
C3030      C3033   1.446       .  S
C3033      N3035   1.157       .  T
C3034      N3036   1.157       .  T
C3037      C3038   1.404       .  A
C3037      C3042   1.413       .  A
C3038      H3043   1.084       .  S
C3038      C3039   1.407       .  A
C3039      C3040   1.412       .  A
C3039      C3046   1.441       .  S
C3040      C3041   1.401       .  A
C3041      H3044   1.077       .  S
C3041      C3042   1.394       .  A
C3042      C3045   1.446       .  S
C3045      N3047   1.157       .  T
C3046      N3048   1.157       .  T
C3049      C3050   1.405       .  A
C3049      C3054   1.419       .  A
C3050      H3055   1.085       .  S
C3050      C3051   1.409       .  A
C3051      C3052   1.418       .  A
C3051      C3058   1.444       .  S
C3052      C3053   1.399       .  A
C3053      H3056   1.085       .  S
C3053      C3054   1.404       .  A
C3054      C3057   1.442       .  S
C3057      N3059   1.157       .  T
C3058      N3060   1.157       .  T
C3061      C3062   1.407       .  A
C3061      C3066   1.415       .  A
C3062      H3067   1.084       .  S
C3062      C3063   1.415       .  A
C3063      C3064   1.415       .  A
C3063      C3070   1.440       .  S
C3064      C3065   1.402       .  A
C3065      H3068   1.077       .  S
C3065      C3066   1.396       .  A
C3066      C3069   1.446       .  S
C3069      N3071   1.157       .  T
C3070      N3072   1.157       .  T
C3073      C3074   1.399       .  A
C3073      C3078   1.411       .  A
C3074      H3079   1.084       .  S
C3074      C3075   1.390       .  A
C3075      C3076   1.415       .  A
C3075      C3082   1.447       .  S
C3076      C3077   1.407       .  A
C3077      H3080   1.084       .  S
C3077      C3078   1.411       .  A
C3078      C3081   1.440       .  S
C3081      N3083   1.157       .  T
C3082      N3084   1.157       .  T
C3085      C3086   1.399       .  A
C3085      C3090   1.407       .  A
C3086      H3091   1.086       .  S
C3086      C3087   1.396       .  A
C3087      C3088   1.418       .  A
C3087      C3094   1.439       .  S
C3088      C3089   1.412       .  A
C3089      H3092   1.083       .  S
C3089      C3090   1.407       .  A
C3090      C3093   1.443       .  S
C3093      N3095   1.157       .  T
C3094      N3096   1.158       .  T
C3097      C3098   1.403       .  A
C3097      C3102   1.410       .  A
C3098      H3103   1.084       .  S
C3098      C3099   1.408       .  A
C3099      C3100   1.415       .  A
C3099      C3106   1.441       .  S
C3100      C3101   1.401       .  A
C3101      H3104   1.071       .  S
C3101      C3102   1.391       .  A
C3102      C3105   1.447       .  S
C3105      N3107   1.157       .  T
C3106      N3108   1.157       .  T
C3109      C3110   1.403       .  A
C3109      C3114   1.408       .  A
C3110      H3115   1.086       .  S
C3110      C3111   1.392       .  A
C3111      C3112   1.412       .  A
C3111      C3118   1.442       .  S
C3112      C3113   1.408       .  A
C3113      H3116   1.084       .  S
C3113      C3114   1.407       .  A
C3114      C3117   1.442       .  S
C3117      N3119   1.157       .  T
C3118      N3120   1.157       .  T
C3121      C3122   1.404       .  A
C3121      C3126   1.411       .  A
C3122      H3127   1.084       .  S
C3122      C3123   1.410       .  A
C3123      C3124   1.417       .  A
C3123      C3130   1.441       .  S
C3124      C3125   1.401       .  A
C3125      H3128   1.072       .  S
C3125      C3126   1.395       .  A
C3126      C3129   1.446       .  S
C3129      N3131   1.157       .  T
C3130      N3132   1.157       .  T
C3133      C3134   1.407       .  A
C3133      C3138   1.412       .  A
C3134      H3139   1.083       .  S
C3134      C3135   1.404       .  A
C3135      C3136   1.409       .  A
C3135      C3142   1.443       .  S
C3136      C3137   1.409       .  A
C3137      H3140   1.085       .  S
C3137      C3138   1.405       .  A
C3138      C3141   1.443       .  S
C3141      N3143   1.157       .  T
C3142      N3144   1.157       .  T
C3145      C3146   1.400       .  A
C3145      C3150   1.408       .  A
C3146      H3151   1.086       .  S
C3146      C3147   1.396       .  A
C3147      C3148   1.418       .  A
C3147      C3154   1.440       .  S
C3148      C3149   1.411       .  A
C3149      H3152   1.083       .  S
C3149      C3150   1.405       .  A
C3150      C3153   1.443       .  S
C3153      N3155   1.157       .  T
C3154      N3156   1.158       .  T
C3157      C3158   1.402       .  A
C3157      C3162   1.411       .  A
C3158      H3163   1.086       .  S
C3158      C3159   1.395       .  A
C3159      C3160   1.413       .  A
C3159      C3166   1.440       .  S
C3160      C3161   1.407       .  A
C3161      H3164   1.082       .  S
C3161      C3162   1.410       .  A
C3162      C3165   1.441       .  S
C3165      N3167   1.157       .  T
C3166      N3168   1.156       .  T
C3169      C3170   1.400       .  A
C3169      C3174   1.407       .  A
C3170      H3175   1.086       .  S
C3170      C3171   1.397       .  A
C3171      C3172   1.416       .  A
C3171      C3178   1.441       .  S
C3172      C3173   1.408       .  A
C3173      H3176   1.082       .  S
C3173      C3174   1.405       .  A
C3174      C3177   1.442       .  S
C3177      N3179   1.157       .  T
C3178      N3180   1.157       .  T
C3181      C3182   1.408       .  A
C3181      C3186   1.412       .  A
C3182      H3187   1.084       .  S
C3182      C3183   1.411       .  A
C3183      C3184   1.411       .  A
C3183      C3190   1.441       .  S
C3184      C3185   1.394       .  A
C3185      H3188   1.082       .  S
C3185      C3186   1.385       .  A
C3186      C3189   1.448       .  S
C3189      N3191   1.157       .  T
C3190      N3192   1.157       .  T
C3193      C3194   1.403       .  A
C3193      C3198   1.410       .  A
C3194      H3199   1.086       .  S
C3194      C3195   1.395       .  A
C3195      C3196   1.414       .  A
C3195      C3202   1.439       .  S
C3196      C3197   1.413       .  A
C3197      H3200   1.084       .  S
C3197      C3198   1.415       .  A
C3198      C3201   1.441       .  S
C3201      N3203   1.157       .  T
C3202      N3204   1.157       .  T
C3205      C3206   1.409       .  A
C3205      C3210   1.416       .  A
C3206      H3211   1.084       .  S
C3206      C3207   1.416       .  A
C3207      C3208   1.415       .  A
C3207      C3214   1.441       .  S
C3208      C3209   1.394       .  A
C3209      H3212   1.076       .  S
C3209      C3210   1.388       .  A
C3210      C3213   1.448       .  S
C3213      N3215   1.157       .  T
C3214      N3216   1.157       .  T
C3217      C3218   1.403       .  A
C3217      C3222   1.418       .  A
C3218      H3223   1.086       .  S
C3218      C3219   1.394       .  A
C3219      C3220   1.416       .  A
C3219      C3226   1.441       .  S
C3220      C3221   1.412       .  A
C3221      H3224   1.084       .  S
C3221      C3222   1.414       .  A
C3222      C3225   1.441       .  S
C3225      N3227   1.157       .  T
C3226      N3228   1.157       .  T
C3229      C3230   1.409       .  A
C3229      C3234   1.412       .  A
C3230      H3235   1.084       .  S
C3230      C3231   1.413       .  A
C3231      C3232   1.413       .  A
C3231      C3238   1.441       .  S
C3232      C3233   1.404       .  A
C3233      H3236   1.086       .  S
C3233      C3234   1.390       .  A
C3234      C3237   1.445       .  S
C3237      N3239   1.157       .  T
C3238      N3240   1.157       .  T
C3241      C3242   1.399       .  A
C3241      C3246   1.410       .  A
C3242      H3247   1.087       .  S
C3242      C3243   1.379       .  A
C3243      C3244   1.416       .  A
C3243      C3250   1.443       .  S
C3244      C3245   1.418       .  A
C3245      H3248   1.081       .  S
C3245      C3246   1.415       .  A
C3246      C3249   1.441       .  S
C3249      N3251   1.157       .  T
C3250      N3252   1.158       .  T
C3253      C3254   1.402       .  A
C3253      C3258   1.403       .  A
C3254      H3259   1.084       .  S
C3254      C3255   1.420       .  A
C3255      C3256   1.436       .  A
C3255      C3262   1.438       .  S
C3256      C3257   1.421       .  A
C3257      H3260   1.072       .  S
C3257      C3258   1.384       .  A
C3258      C3261   1.450       .  S
C3261      N3263   1.157       .  T
C3262      N3264   1.158       .  T
C3265      C3266   1.406       .  A
C3265      C3270   1.409       .  A
C3266      H3271   1.085       .  S
C3266      C3267   1.405       .  A
C3267      C3268   1.417       .  A
C3267      C3274   1.442       .  S
C3268      C3269   1.410       .  A
C3269      H3272   1.084       .  S
C3269      C3270   1.404       .  A
C3270      C3273   1.444       .  S
C3273      N3275   1.157       .  T
C3274      N3276   1.157       .  T
C3277      C3278   1.405       .  A
C3277      C3282   1.412       .  A
C3278      H3283   1.084       .  S
C3278      C3279   1.413       .  A
C3279      C3280   1.416       .  A
C3279      C3286   1.440       .  S
C3280      C3281   1.403       .  A
C3281      H3284   1.075       .  S
C3281      C3282   1.398       .  A
C3282      C3285   1.445       .  S
C3285      N3287   1.157       .  T
C3286      N3288   1.157       .  T
C3289      C3290   1.396       .  A
C3289      C3294   1.404       .  A
C3290      H3295   1.086       .  S
C3290      C3291   1.402       .  A
C3291      C3292   1.426       .  A
C3291      C3298   1.440       .  S
C3292      C3293   1.410       .  A
C3293      H3296   1.085       .  S
C3293      C3294   1.402       .  A
C3294      C3297   1.442       .  S
C3297      N3299   1.157       .  T
C3298      N3300   1.158       .  T
C3301      C3302   1.402       .  A
C3301      C3306   1.407       .  A
C3302      H3307   1.085       .  S
C3302      C3303   1.404       .  A
C3303      C3304   1.416       .  A
C3303      C3310   1.443       .  S
C3304      C3305   1.406       .  A
C3305      H3308   1.075       .  S
C3305      C3306   1.399       .  A
C3306      C3309   1.444       .  S
C3309      N3311   1.157       .  T
C3310      N3312   1.157       .  T
C3313      C3314   1.408       .  A
C3313      C3318   1.416       .  A
C3314      H3319   1.083       .  S
C3314      C3315   1.411       .  A
C3315      C3316   1.411       .  A
C3315      C3322   1.440       .  S
C3316      C3317   1.395       .  A
C3317      H3320   1.079       .  S
C3317      C3318   1.387       .  A
C3318      C3321   1.447       .  S
C3321      N3323   1.157       .  T
C3322      N3324   1.157       .  T
C3325      C3326   1.405       .  A
C3325      C3330   1.412       .  A
C3326      H3331   1.086       .  S
C3326      C3327   1.387       .  A
C3327      C3328   1.412       .  A
C3327      C3334   1.446       .  S
C3328      C3329   1.409       .  A
C3329      H3332   1.084       .  S
C3329      C3330   1.413       .  A
C3330      C3333   1.441       .  S
C3333      N3335   1.157       .  T
C3334      N3336   1.158       .  T
C3337      C3338   1.405       .  A
C3337      C3342   1.409       .  A
C3338      H3343   1.084       .  S
C3338      C3339   1.421       .  A
C3339      C3340   1.432       .  A
C3339      C3346   1.437       .  S
C3340      C3341   1.413       .  A
C3341      H3344   1.078       .  S
C3341      C3342   1.379       .  A
C3342      C3345   1.450       .  S
C3345      N3347   1.157       .  T
C3346      N3348   1.157       .  T
C3349      C3350   1.402       .  A
C3349      C3354   1.410       .  A
C3350      H3355   1.086       .  S
C3350      C3351   1.393       .  A
C3351      C3352   1.414       .  A
C3351      C3358   1.442       .  S
C3352      C3353   1.409       .  A
C3353      H3356   1.083       .  S
C3353      C3354   1.408       .  A
C3354      C3357   1.442       .  S
C3357      N3359   1.157       .  T
C3358      N3360   1.157       .  T
C3361      C3362   1.404       .  A
C3361      C3366   1.410       .  A
C3362      H3367   1.086       .  S
C3362      C3363   1.397       .  A
C3363      C3364   1.412       .  A
C3363      C3370   1.441       .  S
C3364      C3365   1.410       .  A
C3365      H3368   1.084       .  S
C3365      C3366   1.410       .  A
C3366      C3369   1.442       .  S
C3369      N3371   1.157       .  T
C3370      N3372   1.157       .  T
C3373      C3374   1.403       .  A
C3373      C3378   1.411       .  A
C3374      H3379   1.086       .  S
C3374      C3375   1.394       .  A
C3375      C3376   1.413       .  A
C3375      C3382   1.440       .  S
C3376      C3377   1.409       .  A
C3377      H3380   1.082       .  S
C3377      C3378   1.409       .  A
C3378      C3381   1.442       .  S
C3381      N3383   1.157       .  T
C3382      N3384   1.157       .  T
C3385      C3386   1.398       .  A
C3385      C3390   1.408       .  A
C3386      H3391   1.087       .  S
C3386      C3387   1.397       .  A
C3387      C3388   1.419       .  A
C3387      C3394   1.436       .  S
C3388      C3389   1.414       .  A
C3389      H3392   1.082       .  S
C3389      C3390   1.409       .  A
C3390      C3393   1.443       .  S
C3393      N3395   1.157       .  T
C3394      N3396   1.157       .  T
C3397      C3398   1.399       .  A
C3397      C3402   1.408       .  A
C3398      H3403   1.086       .  S
C3398      C3399   1.401       .  A
C3399      C3400   1.421       .  A
C3399      C3406   1.438       .  S
C3400      C3401   1.412       .  A
C3401      H3404   1.083       .  S
C3401      C3402   1.410       .  A
C3402      C3405   1.442       .  S
C3405      N3407   1.157       .  T
C3406      N3408   1.157       .  T
C3409      C3410   1.399       .  A
C3409      C3414   1.417       .  A
C3410      H3415   1.074       .  S
C3410      C3411   1.393       .  A
C3411      C3412   1.411       .  A
C3411      C3418   1.446       .  S
C3412      C3413   1.408       .  A
C3413      H3416   1.084       .  S
C3413      C3414   1.416       .  A
C3414      C3417   1.442       .  S
C3417      N3419   1.157       .  T
C3418      N3420   1.157       .  T
C3421      C3422   1.407       .  A
C3421      C3426   1.412       .  A
C3422      H3427   1.084       .  S
C3422      C3423   1.409       .  A
C3423      C3424   1.416       .  A
C3423      C3430   1.443       .  S
C3424      C3425   1.410       .  A
C3425      H3428   1.081       .  S
C3425      C3426   1.403       .  A
C3426      C3429   1.444       .  S
C3429      N3431   1.157       .  T
C3430      N3432   1.157       .  T
C3433      C3434   1.403       .  A
C3433      C3438   1.410       .  A
C3434      H3439   1.086       .  S
C3434      C3435   1.394       .  A
C3435      C3436   1.414       .  A
C3435      C3442   1.441       .  S
C3436      C3437   1.409       .  A
C3437      H3440   1.083       .  S
C3437      C3438   1.408       .  A
C3438      C3441   1.442       .  S
C3441      N3443   1.157       .  T
C3442      N3444   1.157       .  T
C3445      C3446   1.410       .  A
C3445      C3450   1.417       .  A
C3446      H3451   1.083       .  S
C3446      C3447   1.407       .  A
C3447      C3448   1.407       .  A
C3447      C3454   1.442       .  S
C3448      C3449   1.402       .  A
C3449      H3452   1.086       .  S
C3449      C3450   1.403       .  A
C3450      C3453   1.440       .  S
C3453      N3455   1.157       .  T
C3454      N3456   1.157       .  T
C3457      C3458   1.416       .  A
C3457      C3462   1.428       .  A
C3458      H3463   1.077       .  S
C3458      C3459   1.383       .  A
C3459      C3460   1.399       .  A
C3459      C3466   1.445       .  S
C3460      C3461   1.404       .  A
C3461      H3464   1.084       .  S
C3461      C3462   1.418       .  A
C3462      C3465   1.438       .  S
C3465      N3467   1.157       .  T
C3466      N3468   1.156       .  T
C3469      C3470   1.406       .  A
C3469      C3474   1.415       .  A
C3470      H3475   1.080       .  S
C3470      C3471   1.392       .  A
C3471      C3472   1.406       .  A
C3471      C3478   1.446       .  S
C3472      C3473   1.402       .  A
C3473      H3476   1.085       .  S
C3473      C3474   1.406       .  A
C3474      C3477   1.442       .  S
C3477      N3479   1.157       .  T
C3478      N3480   1.157       .  T
C3481      C3482   1.404       .  A
C3481      C3486   1.413       .  A
C3482      H3487   1.080       .  S
C3482      C3483   1.397       .  A
C3483      C3484   1.412       .  A
C3483      C3490   1.445       .  S
C3484      C3485   1.402       .  A
C3485      H3488   1.085       .  S
C3485      C3486   1.405       .  A
C3486      C3489   1.442       .  S
C3489      N3491   1.157       .  T
C3490      N3492   1.157       .  T
C3493      C3494   1.401       .  A
C3493      C3498   1.412       .  A
C3494      H3499   1.083       .  S
C3494      C3495   1.392       .  A
C3495      C3496   1.414       .  A
C3495      C3502   1.447       .  S
C3496      C3497   1.407       .  A
C3497      H3500   1.084       .  S
C3497      C3498   1.411       .  A
C3498      C3501   1.441       .  S
C3501      N3503   1.157       .  T
C3502      N3504   1.157       .  T
C3505      C3506   1.408       .  A
C3505      C3510   1.413       .  A
C3506      H3511   1.083       .  S
C3506      C3507   1.405       .  A
C3507      C3508   1.410       .  A
C3507      C3514   1.443       .  S
C3508      C3509   1.405       .  A
C3509      H3512   1.086       .  S
C3509      C3510   1.397       .  A
C3510      C3513   1.443       .  S
C3513      N3515   1.157       .  T
C3514      N3516   1.157       .  T
C3517      C3518   1.404       .  A
C3517      C3522   1.413       .  A
C3518      H3523   1.086       .  S
C3518      C3519   1.392       .  A
C3519      C3520   1.411       .  A
C3519      C3526   1.443       .  S
C3520      C3521   1.410       .  A
C3521      H3524   1.084       .  S
C3521      C3522   1.413       .  A
C3522      C3525   1.441       .  S
C3525      N3527   1.157       .  T
C3526      N3528   1.157       .  T
C3529      C3530   1.405       .  A
C3529      C3534   1.415       .  A
C3530      H3535   1.084       .  S
C3530      C3531   1.408       .  A
C3531      C3532   1.411       .  A
C3531      C3538   1.442       .  S
C3532      C3533   1.400       .  A
C3533      H3536   1.083       .  S
C3533      C3534   1.393       .  A
C3534      C3537   1.446       .  S
C3537      N3539   1.157       .  T
C3538      N3540   1.157       .  T
C3541      C3542   1.403       .  A
C3541      C3546   1.408       .  A
C3542      H3547   1.084       .  S
C3542      C3543   1.407       .  A
C3543      C3544   1.415       .  A
C3543      C3550   1.442       .  S
C3544      C3545   1.404       .  A
C3545      H3548   1.072       .  S
C3545      C3546   1.393       .  A
C3546      C3549   1.446       .  S
C3549      N3551   1.157       .  T
C3550      N3552   1.157       .  T
C3553      C3554   1.397       .  A
C3553      C3558   1.406       .  A
C3554      H3559   1.087       .  S
C3554      C3555   1.398       .  A
C3555      C3556   1.423       .  A
C3555      C3562   1.436       .  S
C3556      C3557   1.413       .  A
C3557      H3560   1.083       .  S
C3557      C3558   1.406       .  A
C3558      C3561   1.443       .  S
C3561      N3563   1.157       .  T
C3562      N3564   1.157       .  T
C3565      C3566   1.407       .  A
C3565      C3570   1.406       .  A
C3566      H3571   1.085       .  S
C3566      C3567   1.406       .  A
C3567      C3568   1.413       .  A
C3567      C3574   1.442       .  S
C3568      C3569   1.408       .  A
C3569      H3572   1.083       .  S
C3569      C3570   1.399       .  A
C3570      C3573   1.443       .  S
C3573      N3575   1.157       .  T
C3574      N3576   1.157       .  T
C3577      C3578   1.404       .  A
C3577      C3582   1.412       .  A
C3578      H3583   1.086       .  S
C3578      C3579   1.392       .  A
C3579      C3580   1.413       .  A
C3579      C3586   1.445       .  S
C3580      C3581   1.410       .  A
C3581      H3584   1.083       .  S
C3581      C3582   1.412       .  A
C3582      C3585   1.442       .  S
C3585      N3587   1.157       .  T
C3586      N3588   1.157       .  T
C3589      C3590   1.406       .  A
C3589      C3594   1.412       .  A
C3590      H3595   1.086       .  S
C3590      C3591   1.396       .  A
C3591      C3592   1.412       .  A
C3591      C3598   1.442       .  S
C3592      C3593   1.409       .  A
C3593      H3596   1.082       .  S
C3593      C3594   1.412       .  A
C3594      C3597   1.442       .  S
C3597      N3599   1.157       .  T
C3598      N3600   1.157       .  T
C3601      C3602   1.408       .  A
C3601      C3606   1.415       .  A
C3602      H3607   1.084       .  S
C3602      C3603   1.414       .  A
C3603      C3604   1.413       .  A
C3603      C3610   1.442       .  S
C3604      C3605   1.400       .  A
C3605      H3608   1.078       .  S
C3605      C3606   1.395       .  A
C3606      C3609   1.446       .  S
C3609      N3611   1.157       .  T
C3610      N3612   1.157       .  T
C3613      C3614   1.405       .  A
C3613      C3618   1.412       .  A
C3614      H3619   1.084       .  S
C3614      C3615   1.410       .  A
C3615      C3616   1.415       .  A
C3615      C3622   1.441       .  S
C3616      C3617   1.401       .  A
C3617      H3620   1.074       .  S
C3617      C3618   1.397       .  A
C3618      C3621   1.446       .  S
C3621      N3623   1.157       .  T
C3622      N3624   1.157       .  T
C3625      C3626   1.409       .  A
C3625      C3630   1.415       .  A
C3626      H3631   1.083       .  S
C3626      C3627   1.407       .  A
C3627      C3628   1.409       .  A
C3627      C3634   1.442       .  S
C3628      C3629   1.400       .  A
C3629      H3632   1.087       .  S
C3629      C3630   1.391       .  A
C3630      C3633   1.441       .  S
C3633      N3635   1.157       .  T
C3634      N3636   1.157       .  T
C3637      C3638   1.403       .  A
C3637      C3642   1.414       .  A
C3638      H3643   1.086       .  S
C3638      C3639   1.388       .  A
C3639      C3640   1.413       .  A
C3639      C3646   1.445       .  S
C3640      C3641   1.408       .  A
C3641      H3644   1.083       .  S
C3641      C3642   1.412       .  A
C3642      C3645   1.441       .  S
C3645      N3647   1.157       .  T
C3646      N3648   1.157       .  T
C3649      C3650   1.405       .  A
C3649      C3654   1.411       .  A
C3650      H3655   1.082       .  S
C3650      C3651   1.403       .  A
C3651      C3652   1.408       .  A
C3651      C3658   1.442       .  S
C3652      C3653   1.406       .  A
C3653      H3656   1.085       .  S
C3653      C3654   1.397       .  A
C3654      C3657   1.443       .  S
C3657      N3659   1.157       .  T
C3658      N3660   1.157       .  T
C3661      C3662   1.402       .  A
C3661      C3666   1.415       .  A
C3662      H3667   1.077       .  S
C3662      C3663   1.391       .  A
C3663      C3664   1.410       .  A
C3663      C3670   1.446       .  S
C3664      C3665   1.406       .  A
C3665      H3668   1.084       .  S
C3665      C3666   1.411       .  A
C3666      C3669   1.441       .  S
C3669      N3671   1.157       .  T
C3670      N3672   1.157       .  T
C3673      C3674   1.399       .  A
C3673      C3678   1.412       .  A
C3674      H3679   1.081       .  S
C3674      C3675   1.392       .  A
C3675      C3676   1.413       .  A
C3675      C3682   1.446       .  S
C3676      C3677   1.406       .  A
C3677      H3680   1.084       .  S
C3677      C3678   1.411       .  A
C3678      C3681   1.442       .  S
C3681      N3683   1.157       .  T
C3682      N3684   1.157       .  T
C3685      C3686   1.408       .  A
C3685      C3690   1.415       .  A
C3686      H3691   1.084       .  S
C3686      C3687   1.407       .  A
C3687      C3688   1.409       .  A
C3687      C3694   1.443       .  S
C3688      C3689   1.402       .  A
C3689      H3692   1.086       .  S
C3689      C3690   1.399       .  A
C3690      C3693   1.440       .  S
C3693      N3695   1.157       .  T
C3694      N3696   1.157       .  T
C3697      C3698   1.400       .  A
C3697      C3702   1.410       .  A
C3698      H3703   1.086       .  S
C3698      C3699   1.398       .  A
C3699      C3700   1.416       .  A
C3699      C3706   1.439       .  S
C3700      C3701   1.409       .  A
C3701      H3704   1.083       .  S
C3701      C3702   1.406       .  A
C3702      C3705   1.444       .  S
C3705      N3707   1.157       .  T
C3706      N3708   1.156       .  T
C3709      C3710   1.403       .  A
C3709      C3714   1.407       .  A
C3710      H3715   1.084       .  S
C3710      C3711   1.407       .  A
C3711      C3712   1.412       .  A
C3711      C3718   1.442       .  S
C3712      C3713   1.409       .  A
C3713      H3716   1.073       .  S
C3713      C3714   1.396       .  A
C3714      C3717   1.447       .  S
C3717      N3719   1.157       .  T
C3718      N3720   1.157       .  T
C3721      C3722   1.411       .  A
C3721      C3726   1.418       .  A
C3722      H3727   1.084       .  S
C3722      C3723   1.405       .  A
C3723      C3724   1.408       .  A
C3723      C3730   1.443       .  S
C3724      C3725   1.401       .  A
C3725      H3728   1.086       .  S
C3725      C3726   1.399       .  A
C3726      C3729   1.440       .  S
C3729      N3731   1.157       .  T
C3730      N3732   1.157       .  T
C3733      C3734   1.405       .  A
C3733      C3738   1.416       .  A
C3734      H3739   1.084       .  S
C3734      C3735   1.408       .  A
C3735      C3736   1.411       .  A
C3735      C3742   1.442       .  S
C3736      C3737   1.399       .  A
C3737      H3740   1.084       .  S
C3737      C3738   1.394       .  A
C3738      C3741   1.446       .  S
C3741      N3743   1.157       .  T
C3742      N3744   1.157       .  T
C3745      C3746   1.405       .  A
C3745      C3750   1.412       .  A
C3746      H3751   1.086       .  S
C3746      C3747   1.390       .  A
C3747      C3748   1.410       .  A
C3747      C3754   1.442       .  S
C3748      C3749   1.410       .  A
C3749      H3752   1.084       .  S
C3749      C3750   1.412       .  A
C3750      C3753   1.441       .  S
C3753      N3755   1.157       .  T
C3754      N3756   1.157       .  T
C3757      C3758   1.406       .  A
C3757      C3762   1.413       .  A
C3758      H3763   1.086       .  S
C3758      C3759   1.388       .  A
C3759      C3760   1.408       .  A
C3759      C3766   1.445       .  S
C3760      C3761   1.409       .  A
C3761      H3764   1.083       .  S
C3761      C3762   1.410       .  A
C3762      C3765   1.441       .  S
C3765      N3767   1.157       .  T
C3766      N3768   1.157       .  T
C3769      C3770   1.401       .  A
C3769      C3774   1.410       .  A
C3770      H3775   1.087       .  S
C3770      C3771   1.393       .  A
C3771      C3772   1.414       .  A
C3771      C3778   1.439       .  S
C3772      C3773   1.412       .  A
C3773      H3776   1.084       .  S
C3773      C3774   1.414       .  A
C3774      C3777   1.441       .  S
C3777      N3779   1.157       .  T
C3778      N3780   1.157       .  T
C3781      C3782   1.406       .  A
C3781      C3786   1.414       .  A
C3782      H3787   1.086       .  S
C3782      C3783   1.390       .  A
C3783      C3784   1.407       .  A
C3783      C3790   1.441       .  S
C3784      C3785   1.412       .  A
C3785      H3788   1.083       .  S
C3785      C3786   1.414       .  A
C3786      C3789   1.441       .  S
C3789      N3791   1.157       .  T
C3790      N3792   1.157       .  T
C3793      C3794   1.398       .  A
C3793      C3798   1.405       .  A
C3794      H3799   1.086       .  S
C3794      C3795   1.403       .  A
C3795      C3796   1.420       .  A
C3795      C3802   1.438       .  S
C3796      C3797   1.411       .  A
C3797      H3800   1.082       .  S
C3797      C3798   1.403       .  A
C3798      C3801   1.443       .  S
C3801      N3803   1.157       .  T
C3802      N3804   1.157       .  T
C3805      C3806   1.398       .  A
C3805      C3810   1.408       .  A
C3806      H3811   1.087       .  S
C3806      C3807   1.396       .  A
C3807      C3808   1.421       .  A
C3807      C3814   1.439       .  S
C3808      C3809   1.411       .  A
C3809      H3812   1.083       .  S
C3809      C3810   1.406       .  A
C3810      C3813   1.443       .  S
C3813      N3815   1.157       .  T
C3814      N3816   1.158       .  T
C3817      C3818   1.418       .  A
C3817      C3822   1.433       .  A
C3818      H3823   1.081       .  S
C3818      C3819   1.417       .  A
C3819      C3820   1.412       .  A
C3819      C3826   1.440       .  S
C3820      C3821   1.388       .  A
C3821      H3824   1.081       .  S
C3821      C3822   1.382       .  A
C3822      C3825   1.445       .  S
C3825      N3827   1.157       .  T
C3826      N3828   1.157       .  T
C3829      C3830   1.401       .  A
C3829      C3834   1.410       .  A
C3830      H3835   1.085       .  S
C3830      C3831   1.406       .  A
C3831      C3832   1.421       .  A
C3831      C3838   1.439       .  S
C3832      C3833   1.408       .  A
C3833      H3836   1.083       .  S
C3833      C3834   1.406       .  A
C3834      C3837   1.443       .  S
C3837      N3839   1.157       .  T
C3838      N3840   1.157       .  T
C3841      C3842   1.403       .  A
C3841      C3846   1.424       .  A
C3842      H3847   1.081       .  S
C3842      C3843   1.377       .  A
C3843      C3844   1.415       .  A
C3843      C3850   1.448       .  S
C3844      C3845   1.416       .  A
C3845      H3848   1.082       .  S
C3845      C3846   1.426       .  A
C3846      C3849   1.440       .  S
C3849      N3851   1.157       .  T
C3850      N3852   1.156       .  T
C3853      C3854   1.409       .  A
C3853      C3858   1.415       .  A
C3854      H3859   1.084       .  S
C3854      C3855   1.403       .  A
C3855      C3856   1.413       .  A
C3855      C3862   1.444       .  S
C3856      C3857   1.403       .  A
C3857      H3860   1.084       .  S
C3857      C3858   1.405       .  A
C3858      C3861   1.443       .  S
C3861      N3863   1.157       .  T
C3862      N3864   1.157       .  T
C3865      C3866   1.411       .  A
C3865      C3870   1.413       .  A
C3866      H3871   1.084       .  S
C3866      C3867   1.416       .  A
C3867      C3868   1.414       .  A
C3867      C3874   1.441       .  S
C3868      C3869   1.407       .  A
C3869      H3872   1.086       .  S
C3869      C3870   1.395       .  A
C3870      C3873   1.442       .  S
C3873      N3875   1.158       .  T
C3874      N3876   1.157       .  T
C3877      C3878   1.404       .  A
C3877      C3882   1.411       .  A
C3878      H3883   1.081       .  S
C3878      C3879   1.399       .  A
C3879      C3880   1.411       .  A
C3879      C3886   1.444       .  S
C3880      C3881   1.403       .  A
C3881      H3884   1.085       .  S
C3881      C3882   1.403       .  A
C3882      C3885   1.442       .  S
C3885      N3887   1.157       .  T
C3886      N3888   1.157       .  T
C3889      C3890   1.405       .  A
C3889      C3894   1.414       .  A
C3890      H3895   1.084       .  S
C3890      C3891   1.409       .  A
C3891      C3892   1.413       .  A
C3891      C3898   1.442       .  S
C3892      C3893   1.403       .  A
C3893      H3896   1.082       .  S
C3893      C3894   1.400       .  A
C3894      C3897   1.445       .  S
C3897      N3899   1.157       .  T
C3898      N3900   1.157       .  T
C3901      C3902   1.407       .  A
C3901      C3906   1.416       .  A
C3902      H3907   1.085       .  S
C3902      C3903   1.382       .  A
C3903      C3904   1.411       .  A
C3903      C3910   1.444       .  S
C3904      C3905   1.414       .  A
C3905      H3908   1.083       .  S
C3905      C3906   1.419       .  A
C3906      C3909   1.440       .  S
C3909      N3911   1.157       .  T
C3910      N3912   1.158       .  T
C3913      C3914   1.405       .  A
C3913      C3918   1.412       .  A
C3914      H3919   1.086       .  S
C3914      C3915   1.396       .  A
C3915      C3916   1.412       .  A
C3915      C3922   1.441       .  S
C3916      C3917   1.408       .  A
C3917      H3920   1.082       .  S
C3917      C3918   1.408       .  A
C3918      C3921   1.442       .  S
C3921      N3923   1.157       .  T
C3922      N3924   1.157       .  T
C3925      C3926   1.406       .  A
C3925      C3930   1.413       .  A
C3926      H3931   1.084       .  S
C3926      C3927   1.412       .  A
C3927      C3928   1.414       .  A
C3927      C3934   1.442       .  S
C3928      C3929   1.398       .  A
C3929      H3932   1.076       .  S
C3929      C3930   1.392       .  A
C3930      C3933   1.447       .  S
C3933      N3935   1.157       .  T
C3934      N3936   1.157       .  T
C3937      C3938   1.401       .  A
C3937      C3942   1.409       .  A
C3938      H3943   1.085       .  S
C3938      C3939   1.400       .  A
C3939      C3940   1.412       .  A
C3939      C3946   1.443       .  S
C3940      C3941   1.410       .  A
C3941      H3944   1.081       .  S
C3941      C3942   1.408       .  A
C3942      C3945   1.444       .  S
C3945      N3947   1.157       .  T
C3946      N3948   1.157       .  T
C3949      C3950   1.411       .  A
C3949      C3954   1.408       .  A
C3950      H3955   1.084       .  S
C3950      C3951   1.415       .  A
C3951      C3952   1.421       .  A
C3951      C3958   1.441       .  S
C3952      C3953   1.410       .  A
C3953      H3956   1.082       .  S
C3953      C3954   1.381       .  A
C3954      C3957   1.445       .  S
C3957      N3959   1.158       .  T
C3958      N3960   1.157       .  T
C3961      C3962   1.407       .  A
C3961      C3966   1.416       .  A
C3962      H3967   1.084       .  S
C3962      C3963   1.410       .  A
C3963      C3964   1.414       .  A
C3963      C3970   1.443       .  S
C3964      C3965   1.399       .  A
C3965      H3968   1.085       .  S
C3965      C3966   1.400       .  A
C3966      C3969   1.444       .  S
C3969      N3971   1.157       .  T
C3970      N3972   1.157       .  T
C3973      C3974   1.406       .  A
C3973      C3978   1.415       .  A
C3974      H3979   1.084       .  S
C3974      C3975   1.407       .  A
C3975      C3976   1.412       .  A
C3975      C3982   1.441       .  S
C3976      C3977   1.401       .  A
C3977      H3980   1.078       .  S
C3977      C3978   1.397       .  A
C3978      C3981   1.446       .  S
C3981      N3983   1.157       .  T
C3982      N3984   1.157       .  T
C3985      C3986   1.404       .  A
C3985      C3990   1.412       .  A
C3986      H3991   1.084       .  S
C3986      C3987   1.409       .  A
C3987      C3988   1.414       .  A
C3987      C3994   1.442       .  S
C3988      C3989   1.401       .  A
C3989      H3992   1.078       .  S
C3989      C3990   1.394       .  A
C3990      C3993   1.446       .  S
C3993      N3995   1.157       .  T
C3994      N3996   1.157       .  T
C3997      C3998   1.403       .  A
C3997      C4002   1.412       .  A
C3998      H4003   1.086       .  S
C3998      C3999   1.394       .  A
C3999      C4000   1.414       .  A
C3999      C4006   1.440       .  S
C4000      C4001   1.410       .  A
C4001      H4004   1.082       .  S
C4001      C4002   1.411       .  A
C4002      C4005   1.442       .  S
C4005      N4007   1.157       .  T
C4006      N4008   1.157       .  T
C4009      C4010   1.403       .  A
C4009      C4014   1.410       .  A
C4010      H4015   1.086       .  S
C4010      C4011   1.397       .  A
C4011      C4012   1.416       .  A
C4011      C4018   1.442       .  S
C4012      C4013   1.410       .  A
C4013      H4016   1.082       .  S
C4013      C4014   1.412       .  A
C4014      C4017   1.442       .  S
C4017      N4019   1.157       .  T
C4018      N4020   1.157       .  T
C4021      C4022   1.405       .  A
C4021      C4026   1.413       .  A
C4022      H4027   1.086       .  S
C4022      C4023   1.396       .  A
C4023      C4024   1.413       .  A
C4023      C4030   1.440       .  S
C4024      C4025   1.409       .  A
C4025      H4028   1.082       .  S
C4025      C4026   1.411       .  A
C4026      C4029   1.442       .  S
C4029      N4031   1.157       .  T
C4030      N4032   1.157       .  T
