geometry optimzed in LAMMPS
_audit_creation_date              2020-11-30 
_audit_creation_method            'lammps2cif' 
_symmetry_space_group_name_H-M    'P1' 
_symmetry_Int_Tables_number       1 
_symmetry_cell_setting            triclinic 
loop_ 
_symmetry_equiv_pos_as_xyz 
  x,y,z 
_cell_length_a                    45.06729021 
_cell_length_b                    45.14366283765703 
_cell_length_c                    33.896820302068214 
_cell_angle_alpha                 89.9187127262993 
_cell_angle_beta                  89.60990534981731 
_cell_angle_gamma                 89.99132318588093 
loop_ 
_atom_site_label 
_atom_site_type_symbol 
_atom_site_fract_x 
_atom_site_fract_y 
_atom_site_fract_z 
_atom_site_charge 
C1          C  0.37190137  0.36561336  0.99522557     0.79400
N2          N  0.36131970  0.35375945  0.29291051    -0.78900
C3          C  0.34143530  0.33118238  0.29307425     0.81800
N4          N  0.33136942  0.31996910  0.32780509    -0.78800
C5          C  0.34187507  0.33124287  0.02958340     0.81900
N6          N  0.36142984  0.35408736  0.02970426    -0.80600
C7          C  0.16106569  0.37480906  0.99610699     0.79400
N8          N  0.17379976  0.36706840  0.29520264    -0.78900
C9          C  0.19567072  0.34638428  0.29479227     0.81800
N10         N  0.20638935  0.33568092  0.32926430    -0.78800
C11         C  0.19431115  0.34424439  0.03094687     0.81900
N12         N  0.17171969  0.36410117  0.03076098    -0.80600
C13         C  0.36280049  0.15403446  0.99646709     0.79400
N14         N  0.35098031  0.16628954  0.29535854    -0.78900
C15         C  0.32788584  0.18557841  0.29520480     0.81800
N16         N  0.31593001  0.19497537  0.32983395    -0.78800
C17         C  0.32809176  0.18332922  0.03134588     0.81900
N18         N  0.35088981  0.16361620  0.03120310    -0.80600
N19         N  0.01217256  0.46946471  0.32265703    -0.37400
N20         N  0.46520983  0.01392336  0.32690420    -0.58000
N21         N  0.00918770  0.06056719  0.32334673    -0.37400
N22         N  0.05636134  0.01610093  0.32671570    -0.58000
C23         C  0.48767559  0.45276388  0.33020634     0.26200
C24         C  0.03652139  0.45322920  0.33129141     0.26200
C25         C  0.48510640  0.07610017  0.33845070     0.26200
C26         C  0.03271159  0.07768929  0.33291092     0.26200
C27         C  0.44795920  0.49074903  0.32155703     0.34800
C28         C  0.44747523  0.03776073  0.32175836     0.35200
C29         C  0.07500999  0.49269096  0.32444821     0.34800
C30         C  0.07308725  0.04070421  0.32191036     0.34800
C31         C  0.49705361  0.42459637  0.34077251    -0.22700
C32         C  0.02794238  0.42510106  0.34322805    -0.22700
C33         C  0.49304208  0.10299876  0.35505836    -0.22700
C34         C  0.02267989  0.10490871  0.34645967    -0.22700
C35         C  0.42021155  0.99827812  0.30820000    -0.23800
C36         C  0.41945605  0.02870772  0.31020164    -0.23800
C37         C  0.10303151  0.00258192  0.31186539    -0.23800
C38         C  0.10210622  0.03296562  0.31285954    -0.23800
C39         C  0.45763787  0.46100539  0.32467318    -0.19100
C40         C  0.06634054  0.46264026  0.32732198    -0.19100
C41         C  0.06301216  0.06999642  0.32820384    -0.19100
C42         C  0.45565313  0.06734722  0.33016615    -0.19100
H43         H  0.48334992  0.40546846  0.34714280     0.13800
H44         H  0.04217918  0.40691870  0.35179031     0.13800
H45         H  0.47835889  0.12044361  0.36510193     0.13800
H46         H  0.03596135  0.12345661  0.35617750     0.13800
H47         H  0.40089595  0.48525226  0.30434896     0.12100
H48         H  0.40034393  0.04254359  0.30446579     0.12100
H49         H  0.12359704  0.48892344  0.31444331     0.12100
H50         H  0.12073408  0.04766376  0.30788219     0.12100
H51         H  0.01202871  0.49063520  0.31073036     0.25300
H52         H  0.01008770  0.03980515  0.31033401     0.25300
C53         C  0.14997413  0.16470889  0.99666525     0.79400
N54         N  0.16052650  0.17680762  0.29657029    -0.78900
C55         C  0.18081719  0.19897660  0.29709290     0.81800
N56         N  0.19049241  0.20975620  0.33206361    -0.78800
C57         C  0.18027497  0.19754939  0.03266587     0.81900
N58         N  0.15986433  0.17543099  0.03175429    -0.80600
N59         N  0.30144458  0.31651332  0.20684337    -0.06900
N60         N  0.30646876  0.33401534  0.23721885    -0.59100
N61         N  0.31958740  0.29347004  0.11569827    -0.06600
N62         N  0.33763146  0.29508856  0.08485958    -0.61200
N63         N  0.30122699  0.31614093  0.11604749    -0.06200
N64         N  0.30648109  0.33376323  0.08568990    -0.59000
N65         N  0.31976357  0.29381506  0.20710658    -0.05900
N66         N  0.33754770  0.29527735  0.23786300    -0.61500
C67         C  0.32907723  0.32054379  0.25605369     0.95200
C68         C  0.32923333  0.32038738  0.06667760     0.95000
N69         N  0.29001326  0.20575832  0.11729576    -0.07100
N70         N  0.29179508  0.18748552  0.08690464    -0.59600
N71         N  0.31305420  0.22473458  0.20784609    -0.05200
N72         N  0.33064380  0.21997972  0.23819650    -0.60900
N73         N  0.29029946  0.20647518  0.20885085    -0.07200
N74         N  0.29179999  0.18905390  0.24014422    -0.59900
N75         N  0.31267322  0.22416190  0.11707487    -0.04900
N76         N  0.33040882  0.21872730  0.08681825    -0.61000
Mn77       Mn  0.31731278  0.25894027  0.16186445     1.18400
C78         C  0.31722315  0.19575133  0.06850861     0.97300
C79         C  0.31713969  0.19765889  0.25789919     0.98000
N80         N  0.23188286  0.32281114  0.11683697    -0.07200
N81         N  0.23032829  0.34046520  0.08581427    -0.63500
N82         N  0.20961931  0.30531832  0.20869237    -0.06000
N83         N  0.19232573  0.31078851  0.23942420    -0.64200
N84         N  0.23231933  0.32365141  0.20807317    -0.06700
N85         N  0.23103230  0.34190742  0.23847857    -0.63700
N86         N  0.20909218  0.30458020  0.11777154    -0.05600
N87         N  0.19142136  0.30958624  0.08758348    -0.64400
Mn88       Mn  0.26681155  0.32081042  0.16189700     1.10700
C89         C  0.20491174  0.33204985  0.06815172     0.98500
C90         C  0.20588074  0.33371285  0.25747104     0.98600
N91         N  0.22100661  0.21332870  0.20988885    -0.06700
N92         N  0.21609892  0.19609781  0.24076053    -0.62100
N93         N  0.20196505  0.23515534  0.11869064    -0.06000
N94         N  0.18386207  0.23335373  0.08825155    -0.58800
N95         N  0.22034967  0.21249041  0.11892513    -0.07300
N96         N  0.21503194  0.19472071  0.08888385    -0.61600
N97         N  0.20270330  0.23605658  0.21022602    -0.06300
N98         N  0.18506058  0.23485887  0.24150313    -0.58800
Mn99       Mn  0.25530756  0.20842928  0.16369499     1.20200
Mn100      Mn  0.20475064  0.27037587  0.16384531     1.10100
Cl101      Cl  0.26102985  0.26462497  0.16273906    -0.86800
C102        C  0.19367022  0.20980345  0.26007371     0.95600
C103        C  0.19212476  0.20789115  0.07028201     0.95300
C104        C  0.12388680  0.12254623  0.02954887    -0.27100
C105        C  0.12760912  0.14044124  0.99587664    -0.15200
C106        C  0.10762164  0.13741030  0.29796096     0.35400
C107        C  0.08707531  0.11409134  0.29827915    -0.26600
C108        C  0.08543353  0.09420048  0.32997762    -0.15800
C109        C  0.10296600  0.09961789  0.03075694     0.36500
N110        N  0.10021017  0.08268732  0.06657132    -0.90100
H111        H  0.13739148  0.12629978  0.05538408     0.17600
H112        H  0.07214794  0.11153136  0.27357007     0.17600
N113        N  0.10793948  0.15764729  0.26537620    -0.89100
H114        H  0.11996770  0.07089272  0.07025825     0.35000
H115        H  0.08315271  0.06712359  0.06512727     0.40100
H116        H  0.08686476  0.16717450  0.26317759     0.39700
H117        H  0.11199972  0.14555011  0.23961501     0.34600
C118        C  0.42877998  0.10914219  0.29815513    -0.27100
C119        C  0.43212087  0.09047592  0.33084077    -0.15200
C120        C  0.41341413  0.09123177  0.02861866     0.35400
C121        C  0.39114879  0.11300030  0.02866369    -0.26600
C122        C  0.38742635  0.13206437  0.99615039    -0.15800
C123        C  0.40658855  0.13098968  0.29750227     0.36500
N124        N  0.40449623  0.15018003  0.26395259    -0.90100
H125        H  0.44351478  0.10671552  0.27296290     0.17600
H126        H  0.37654580  0.11470763  0.05407909     0.17600
N127        N  0.41718623  0.07238062  0.06222894    -0.89100
H128        H  0.40110145  0.13708385  0.23897096     0.35000
H129        H  0.42479328  0.16112974  0.26049751     0.40100
H130        H  0.42124435  0.08578809  0.08673085     0.39700
H131        H  0.39725759  0.06108377  0.06719207     0.34600
C132        C  0.11048839  0.43905230  0.02509458    -0.27100
C133        C  0.09013426  0.43982217  0.32836696    -0.15200
C134        C  0.09650410  0.42197284  0.29529359     0.35400
C135        C  0.12033252  0.40217965  0.29647548    -0.26600
C136        C  0.13699447  0.39735677  0.99584367    -0.15800
C137        C  0.13340969  0.41799456  0.02691876     0.36500
N138        N  0.15339986  0.41803944  0.05979652    -0.90100
H139        H  0.10760045  0.45477280  0.04895160     0.17600
H140        H  0.12473422  0.38862933  0.27073779     0.17600
N141        N  0.07933524  0.42379706  0.25996367    -0.89100
H142        H  0.14737695  0.43431947  0.08025192     0.35000
H143        H  0.17439545  0.42390035  0.04904330     0.40100
H144        H  0.07997934  0.44564771  0.24973864     0.39700
H145        H  0.05734460  0.41841474  0.26679519     0.34600
C146        C  0.41163017  0.39402271  0.29364927    -0.27100
C147        C  0.39367201  0.39043334  0.99533838    -0.15200
C148        C  0.39615409  0.41008425  0.02760264     0.35400
C149        C  0.41721816  0.43294452  0.02650045    -0.26600
C150        C  0.43493327  0.43697802  0.32379445    -0.15800
C151        C  0.43238805  0.41715375  0.29163330     0.36500
N152        N  0.45004915  0.41999052  0.25632758    -0.90100
H153        H  0.41005740  0.37895770  0.26889008     0.17600
H154        H  0.41900922  0.44779354  0.05147803     0.17600
N155        N  0.37702871  0.40736774  0.06133109    -0.89100
H156        H  0.46405313  0.40155677  0.25476347     0.35000
H157        H  0.46359019  0.43871940  0.25691862     0.40100
H158        H  0.36538069  0.42725117  0.06465236     0.39700
H159        H  0.39026946  0.40442719  0.08624371     0.34600
C160        C  0.37146762  0.36515275  0.32741834     0.79400
N161        N  0.36125816  0.35437278  0.62687706    -0.78900
C162        C  0.34116882  0.33204461  0.62683897     0.81800
N163        N  0.33141155  0.32035809  0.66144356    -0.78800
C164        C  0.34131829  0.33118178  0.36236214     0.81900
N165        N  0.36116488  0.35380246  0.36211344    -0.80600
C166        C  0.16275328  0.37746224  0.33002196     0.79400
N167        N  0.17429931  0.36672931  0.62993212    -0.78900
C168        C  0.19608867  0.34601504  0.62941318     0.81800
N169        N  0.20643203  0.33479670  0.66382054    -0.78800
C170        C  0.19532603  0.34570842  0.36405673     0.81900
N171        N  0.17346862  0.36634425  0.36437840    -0.80600
C172        C  0.36216151  0.15601054  0.32995713     0.79400
N173        N  0.35088504  0.16571417  0.62712634    -0.78900
C174        C  0.32844369  0.18577847  0.62838375     0.81800
N175        N  0.31726772  0.19464275  0.66368271    -0.78800
C176        C  0.32694269  0.18495745  0.36454909     0.81900
N177        N  0.35008676  0.16566342  0.36455396    -0.80600
N178        N  0.01288483  0.46905252  0.65730007    -0.37400
N179        N  0.46644310  0.01265735  0.65735978    -0.58000
N180        N  0.00877734  0.06134243  0.65771890    -0.37400
N181        N  0.05631872  0.01753536  0.65884365    -0.58000
C182        C  0.48785643  0.45264960  0.66208330     0.26200
C183        C  0.03719120  0.45299434  0.66661224     0.26200
C184        C  0.48542241  0.07561596  0.66475219     0.26200
C185        C  0.03218758  0.07896902  0.66616309     0.26200
C186        C  0.44786908  0.49028763  0.65322454     0.34800
C187        C  0.44825956  0.03601826  0.65136046     0.35200
C188        C  0.07559716  0.49195413  0.65581452     0.34800
C189        C  0.07289026  0.04232742  0.65500204     0.34800
C190        C  0.49735925  0.42467814  0.67335656    -0.22700
C191        C  0.02854744  0.42526524  0.68007831    -0.22700
C192        C  0.49295430  0.10326735  0.67937820    -0.22700
C193        C  0.02197994  0.10642595  0.67853632    -0.22700
C194        C  0.42152845  0.99576116  0.64019679    -0.23800
C195        C  0.42027838  0.02619189  0.64077733    -0.23800
C196        C  0.10313628  0.00463845  0.64384017    -0.23800
C197        C  0.10200692  0.03496941  0.64592572    -0.23800
C198        C  0.45782119  0.46071801  0.65672702    -0.19100
C199        C  0.06696744  0.46213162  0.66130713    -0.19100
C200        C  0.06251138  0.07146079  0.66149770    -0.19100
C201        C  0.45600083  0.06594889  0.65806621    -0.19100
H202        H  0.48374716  0.40561934  0.68042805     0.13800
H203        H  0.04276830  0.40726783  0.68935017     0.13800
H204        H  0.47802847  0.12076066  0.68859910     0.13800
H205        H  0.03512904  0.12538408  0.68712873     0.13800
H206        H  0.40049624  0.48416234  0.63789937     0.12100
H207        H  0.40088698  0.03954111  0.63467907     0.12100
H208        H  0.12347651  0.48751043  0.64126773     0.12100
H209        H  0.12054706  0.04988319  0.64154887     0.12100
H210        H  0.01275481  0.48980969  0.64418448     0.25300
H211        H  0.00972395  0.04031416  0.64577463     0.25300
C212        C  0.14949377  0.16542569  0.33080939     0.79400
N213        N  0.15979948  0.17875912  0.62978402    -0.78900
C214        C  0.18030798  0.20070456  0.63066807     0.81800
N215        N  0.19096303  0.21022785  0.66572971    -0.78800
C216        C  0.17990782  0.19837184  0.36647590     0.81900
N217        N  0.15963307  0.17607718  0.36581641    -0.80600
N218        N  0.30142538  0.31776673  0.54036493    -0.06900
N219        N  0.30639835  0.33523241  0.57079518    -0.59100
N220        N  0.31939145  0.29424113  0.44926901    -0.06600
N221        N  0.33719412  0.29546376  0.41815478    -0.61200
N222        N  0.30112593  0.31698466  0.44948547    -0.06200
N223        N  0.30618464  0.33425391  0.41871397    -0.59000
N224        N  0.31969918  0.29504111  0.54066138    -0.05900
N225        N  0.33740190  0.29642682  0.57147966    -0.61500
C226        C  0.32891015  0.32165545  0.58970058     0.95200
C227        C  0.32875386  0.32061044  0.39964746     0.95000
N228        N  0.28951775  0.20691076  0.45133884    -0.07100
N229        N  0.29084625  0.18903985  0.42047816    -0.59600
N230        N  0.31276197  0.22608100  0.54207840    -0.05200
N231        N  0.33057337  0.22108719  0.57215915    -0.60900
N232        N  0.28991493  0.20793966  0.54321084    -0.07200
N233        N  0.29158714  0.19035296  0.57433592    -0.59900
N234        N  0.31226958  0.22519038  0.45108981    -0.04900
N235        N  0.32963169  0.22006164  0.42036190    -0.61000
Mn236      Mn  0.31709234  0.26001640  0.49574245     1.18400
C237        C  0.31608900  0.19744727  0.40172810     0.97300
C238        C  0.31710103  0.19873985  0.59186569     0.98000
N239        N  0.23210281  0.32399183  0.45030778    -0.07200
N240        N  0.23093497  0.34156715  0.41919678    -0.63500
N241        N  0.20950159  0.30653749  0.54197725    -0.06000
N242        N  0.19250340  0.31140181  0.57314840    -0.64200
N243        N  0.23230672  0.32474503  0.54169630    -0.06700
N244        N  0.23136638  0.34233410  0.57282303    -0.63700
N245        N  0.20928765  0.30579504  0.45091183    -0.05600
N246        N  0.19197518  0.31073588  0.42033435    -0.64400
Mn247      Mn  0.26681638  0.32196803  0.49545622     1.10700
C248        C  0.20576538  0.33309894  0.40104437     0.98500
C249        C  0.20635013  0.33379187  0.59189190     0.98600
N250        N  0.22063388  0.21506485  0.54381121    -0.06700
N251        N  0.21579769  0.19804991  0.57486693    -0.62100
N252        N  0.20170919  0.23641817  0.45221667    -0.06000
N253        N  0.18367373  0.23453019  0.42171017    -0.58800
N254        N  0.21998389  0.21367254  0.45279553    -0.07300
N255        N  0.21464960  0.19575748  0.42289230    -0.61600
N256        N  0.20215934  0.23764774  0.54374101    -0.06300
N257        N  0.18439872  0.23653540  0.57492294    -0.58800
Mn258      Mn  0.25491639  0.20979268  0.49780427     1.20200
Mn259      Mn  0.20452717  0.27174815  0.49713529     1.10100
Cl260      Cl  0.26081882  0.26586402  0.49648675    -0.86800
C261        C  0.19320640  0.21168942  0.59384820     0.95600
C262        C  0.19185574  0.20893094  0.40401074     0.95300
C263        C  0.12545630  0.12114310  0.36181713    -0.27100
C264        C  0.12721161  0.14109184  0.32998361    -0.15200
C265        C  0.10992895  0.13617796  0.62853455     0.35400
C266        C  0.08908951  0.11311382  0.62900539    -0.26600
C267        C  0.08469151  0.09578565  0.66276318    -0.15800
C268        C  0.10492349  0.09777025  0.36226166     0.36500
N269        N  0.10421646  0.07863887  0.39621974    -0.90100
H270        H  0.14028250  0.12358176  0.38663457     0.17600
H271        H  0.07625586  0.10863383  0.60274952     0.17600
N272        N  0.11344388  0.15344489  0.59333201    -0.89100
H273        H  0.12423109  0.06693368  0.39675678     0.35000
H274        H  0.08722661  0.06301239  0.39463728     0.40100
H275        H  0.09291712  0.16286735  0.58647289     0.39700
H276        H  0.11944346  0.13916844  0.57035712     0.34600
C277        C  0.42870283  0.10802757  0.62731836    -0.27100
C278        C  0.43191414  0.08849581  0.65912731    -0.15200
C279        C  0.41346405  0.09417271  0.36384794     0.35400
C280        C  0.39109436  0.11585691  0.36326186    -0.26600
C281        C  0.38702186  0.13419493  0.33008074    -0.15800
C282        C  0.40635483  0.12971837  0.62740146     0.36500
N283        N  0.40452553  0.14995676  0.59493863    -0.90100
H284        H  0.44377598  0.10651676  0.60235036     0.17600
H285        H  0.37662135  0.11800397  0.38874746     0.17600
N286        N  0.41734775  0.07599024  0.39806719    -0.89100
H287        H  0.40151026  0.13765637  0.56916316     0.35000
H288        H  0.42479172  0.16111008  0.59253553     0.40100
H289        H  0.42144129  0.08988477  0.42207357     0.39700
H290        H  0.39744362  0.06476779  0.40350802     0.34600
C291        C  0.10750032  0.43711591  0.36228734    -0.27100
C292        C  0.09070417  0.43932693  0.66263341    -0.15200
C293        C  0.09651409  0.42081707  0.63005429     0.35400
C294        C  0.12027758  0.40096854  0.63133820    -0.26600
C295        C  0.13810300  0.39943981  0.33027064    -0.15800
C296        C  0.13156137  0.41730956  0.36362476     0.36500
N297        N  0.14957777  0.41584862  0.39841779    -0.90100
H298        H  0.10256501  0.45103610  0.38751702     0.17600
H299        H  0.12425471  0.38685961  0.60601612     0.17600
N300        N  0.07882057  0.42202071  0.59513424    -0.89100
H301        H  0.14130468  0.42994124  0.42034130     0.35000
H302        H  0.17064569  0.42382061  0.39085026     0.40100
H303        H  0.07940864  0.44365664  0.58411670     0.39700
H304        H  0.05690760  0.41689222  0.60274133     0.34600
C305        C  0.41137953  0.39412105  0.62672595    -0.27100
C306        C  0.39320271  0.39001576  0.32691153    -0.15200
C307        C  0.39564726  0.41009037  0.35867829     0.35400
C308        C  0.41642746  0.43321227  0.35682929    -0.26600
C309        C  0.43536744  0.43663499  0.65661398    -0.15800
C310        C  0.43202738  0.41725429  0.62418515     0.36500
N311        N  0.44874767  0.42055633  0.58813799    -0.90100
H312        H  0.40909877  0.37942454  0.60168050     0.17600
H313        H  0.41826674  0.44830087  0.38153854     0.17600
N314        N  0.37673031  0.40754934  0.39263460    -0.89100
H315        H  0.46261527  0.40209293  0.58541525     0.35000
H316        H  0.46241983  0.43919506  0.58858017     0.40100
H317        H  0.36481849  0.42730724  0.39559293     0.39700
H318        H  0.39013306  0.40511918  0.41748719     0.34600
C319        C  0.37192281  0.36512565  0.66142302     0.79400
N320        N  0.36219016  0.35416717  0.96047606    -0.78900
C321        C  0.34258418  0.33131366  0.96024755     0.81800
N322        N  0.33238418  0.31994361  0.99483475    -0.78800
C323        C  0.34187890  0.33090698  0.69610706     0.81900
N324        N  0.36194736  0.35335946  0.69605970    -0.80600
C325        C  0.16297049  0.37672817  0.66474492     0.79400
N326        N  0.17272586  0.36465542  0.96154174    -0.78900
C327        C  0.19539649  0.34483738  0.96168262     0.81800
N328        N  0.20617462  0.33466236  0.99639969    -0.78800
C329        C  0.19509410  0.34442124  0.69869466     0.81900
N330        N  0.17332078  0.36519760  0.69910640    -0.80600
C331        C  0.36211530  0.15417337  0.66102327     0.79400
N332        N  0.35179819  0.16469805  0.96199160    -0.78900
C333        C  0.32911154  0.18441719  0.96204281     0.81800
N334        N  0.31731528  0.19378045  0.99674456    -0.78800
C335        C  0.32835302  0.18337571  0.69765051     0.81900
N336        N  0.35076487  0.16328352  0.69629777    -0.80600
N337        N  0.01302257  0.46927817  0.99270559    -0.37400
N338        N  0.46572849  0.01203118  0.99381406    -0.58000
N339        N  0.00891371  0.06056089  0.99271479    -0.37400
N340        N  0.05596751  0.01631782  0.99668025    -0.58000
C341        C  0.48855756  0.45267172  0.00033299     0.26200
C342        C  0.03784815  0.45326713  0.99940777     0.26200
C343        C  0.48544516  0.07508374  0.00053619     0.26200
C344        C  0.03245124  0.07798064  0.00109637     0.26200
C345        C  0.44859358  0.49056017  0.99139088     0.34800
C346        C  0.44782765  0.03561565  0.98796266     0.35200
C347        C  0.07526454  0.49317492  0.98770484     0.34800
C348        C  0.07284300  0.04079997  0.99182254     0.34800
C349        C  0.49803637  0.42442798  0.01044157    -0.22700
C350        C  0.03001247  0.42478508  0.01082155    -0.22700
C351        C  0.49328127  0.10298244  0.01408004    -0.22700
C352        C  0.02249798  0.10552957  0.01346124    -0.22700
C353        C  0.42065885  0.99572014  0.97634686    -0.23800
C354        C  0.41974432  0.02615106  0.97725825    -0.23800
C355        C  0.10296142  0.00256522  0.98431007    -0.23800
C356        C  0.10205432  0.03291853  0.98430092    -0.23800
C357        C  0.45850850  0.46090496  0.99502902    -0.19100
C358        C  0.06734191  0.46306669  0.99302709    -0.19100
C359        C  0.06267695  0.07019501  0.99642042    -0.19100
C360        C  0.45594154  0.06546500  0.99454446    -0.19100
H361        H  0.48439784  0.40524506  0.01675752     0.13800
H362        H  0.04472601  0.40656453  0.01766707     0.13800
H363        H  0.47855672  0.12075823  0.02289772     0.13800
H364        H  0.03582287  0.12437781  0.02199596     0.13800
H365        H  0.40150687  0.48440386  0.97464142     0.12100
H366        H  0.40053908  0.03974972  0.97109626     0.12100
H367        H  0.12240602  0.48974897  0.96905683     0.12100
H368        H  0.12081258  0.04750596  0.97963258     0.12100
H369        H  0.01222281  0.49054041  0.98140941     0.25300
H370        H  0.00973939  0.03951788  0.98056162     0.25300
C371        C  0.14935061  0.16645106  0.66376610     0.79400
N372        N  0.16135014  0.17595638  0.96256355    -0.78900
C373        C  0.18177428  0.19799510  0.96338592     0.81800
N374        N  0.19124919  0.20876845  0.99842555    -0.78800
C375        C  0.18098327  0.19790639  0.69984202     0.81900
N376        N  0.16034476  0.17600644  0.69884326    -0.80600
N377        N  0.30258199  0.31605775  0.87403938    -0.06900
N378        N  0.30766569  0.33375690  0.90421130    -0.59100
N379        N  0.32048916  0.29294924  0.78264423    -0.06600
N380        N  0.33828887  0.29465044  0.75153101    -0.61200
N381        N  0.30195923  0.31549332  0.78312095    -0.06200
N382        N  0.30680695  0.33304602  0.75257915    -0.59000
N383        N  0.32104120  0.29346839  0.87432095    -0.05900
N384        N  0.33896906  0.29522686  0.90494626    -0.61500
C385        C  0.33048031  0.32058405  0.92298709     0.95200
C386        C  0.32955342  0.31986012  0.73334465     0.95000
N387        N  0.29129727  0.20499929  0.78460555    -0.07100
N388        N  0.29288754  0.18683488  0.75410302    -0.59600
N389        N  0.31430185  0.22413378  0.87512402    -0.05200
N390        N  0.33187383  0.21926702  0.90547646    -0.60900
N391        N  0.29162305  0.20575859  0.87590979    -0.07200
N392        N  0.29317655  0.18813718  0.90698375    -0.59900
N393        N  0.31391943  0.22344908  0.78428636    -0.04900
N394        N  0.33143575  0.21815168  0.75375625    -0.61000
Mn395      Mn  0.31853556  0.25840217  0.82904793     1.18400
C396        C  0.31816726  0.19519442  0.73547332     0.97300
C397        C  0.31843611  0.19674816  0.92488582     0.98000
N398        N  0.23273486  0.32219740  0.78423802    -0.07200
N399        N  0.23106911  0.34011369  0.75350015    -0.63500
N400        N  0.21056611  0.30426700  0.87573949    -0.06000
N401        N  0.19296841  0.30952218  0.90618363    -0.64200
N402        N  0.23324492  0.32261706  0.87560613    -0.06700
N403        N  0.23165556  0.34068513  0.90620600    -0.63700
N404        N  0.21004534  0.30385302  0.78490162    -0.05600
N405        N  0.19234110  0.30901261  0.75475567    -0.64400
Mn406      Mn  0.26774194  0.32010461  0.82925598     1.10700
C407        C  0.20572981  0.33171835  0.73564612     0.98500
C408        C  0.20631491  0.33231171  0.92468229     0.98600
N409        N  0.22237536  0.21256955  0.87682035    -0.06700
N410        N  0.21737789  0.19525661  0.90756117    -0.62100
N411        N  0.20330753  0.23456553  0.78594479    -0.06000
N412        N  0.18511524  0.23304182  0.75565385    -0.58800
N413        N  0.22162533  0.21185051  0.78592490    -0.07300
N414        N  0.21614790  0.19427834  0.75570487    -0.61600
N415        N  0.20402028  0.23524675  0.87708984    -0.06300
N416        N  0.18622747  0.23394816  0.90816990    -0.58800
Mn417      Mn  0.25662850  0.20769325  0.83076740     1.20200
Mn418      Mn  0.20595064  0.26956141  0.83089852     1.10100
Cl419      Cl  0.26222734  0.26391977  0.82992691    -0.86800
C420        C  0.19481481  0.20887913  0.92666280     0.95600
C421        C  0.19322252  0.20771194  0.73739248     0.95300
C422        C  0.12205531  0.12481513  0.69664755    -0.27100
C423        C  0.12682134  0.14227242  0.66270114    -0.15200
C424        C  0.10972890  0.13488810  0.96252370     0.35400
C425        C  0.08873500  0.11195920  0.96364545    -0.26600
C426        C  0.08510539  0.09430396  0.99734474    -0.15800
C427        C  0.10130938  0.10173877  0.69694100     0.36500
N428        N  0.09732964  0.08482768  0.73236751    -0.90100
H429        H  0.13465881  0.12889321  0.72319095     0.17600
H430        H  0.07509382  0.10790448  0.93798939     0.17600
N431        N  0.11227337  0.15272258  0.92767621    -0.89100
H432        H  0.10201248  0.06263697  0.72617614     0.35000
H433        H  0.07508793  0.08642176  0.74107179     0.40100
H434        H  0.09159889  0.16235152  0.92220970     0.39700
H435        H  0.11746938  0.13879921  0.90398759     0.34600
C436        C  0.42912364  0.10752332  0.96360173    -0.27100
C437        C  0.43216639  0.08819299  0.99559412    -0.15200
C438        C  0.41277891  0.09097253  0.69187319     0.35400
C439        C  0.39020791  0.11243284  0.69193814    -0.26600
C440        C  0.38649913  0.13186731  0.65980511    -0.15800
C441        C  0.40715668  0.12950978  0.96365539     0.36500
N442        N  0.40553458  0.14958765  0.93098899    -0.90100
H443        H  0.44404494  0.10562464  0.93851589     0.17600
H444        H  0.37547033  0.11375093  0.71726040     0.17600
N445        N  0.41652231  0.07193574  0.72530060    -0.89100
H446        H  0.40222969  0.13719262  0.90535904     0.35000
H447        H  0.42596011  0.16041985  0.92834842     0.40100
H448        H  0.42013463  0.08522459  0.75004498     0.39700
H449        H  0.39672330  0.06030552  0.72978236     0.34600
C450        C  0.10868602  0.43741024  0.69608638    -0.27100
C451        C  0.09136763  0.44039583  0.99271627    -0.15200
C452        C  0.09497237  0.41988337  0.96147051     0.35400
C453        C  0.11766060  0.39868677  0.96350293    -0.26600
C454        C  0.13847872  0.39881547  0.66480076    -0.15800
C455        C  0.13263049  0.41746259  0.69755079     0.36500
N456        N  0.15124543  0.41660125  0.73180724    -0.90100
H457        H  0.10426383  0.45195579  0.72084660     0.17600
H458        H  0.12015624  0.38309197  0.93942862     0.17600
N459        N  0.07653890  0.42017898  0.92699168    -0.89100
H460        H  0.14354177  0.43134386  0.75332862     0.35000
H461        H  0.17228608  0.42407665  0.72324975     0.40100
H462        H  0.06147956  0.43772357  0.92729328     0.39700
H463        H  0.06411888  0.40061852  0.92709288     0.34600
C464        C  0.41245079  0.39452235  0.96246011    -0.27100
C465        C  0.39390340  0.38969623  0.66080772    -0.15200
C466        C  0.39734657  0.40921596  0.69299056     0.35400
C467        C  0.41799145  0.43238588  0.69057584    -0.26600
C468        C  0.43598854  0.43681178  0.99378414    -0.15800
C469        C  0.43358450  0.41730971  0.96127221     0.36500
N470        N  0.45181846  0.42008422  0.92646324    -0.90100
H471        H  0.41095612  0.37970589  0.93743117     0.17600
H472        H  0.42058801  0.44715326  0.71550516     0.17600
N473        N  0.37957449  0.40608818  0.72792652    -0.89100
H474        H  0.46550299  0.40140656  0.92502358     0.35000
H475        H  0.46569496  0.43854751  0.92759337     0.40100
H476        H  0.36775151  0.42577238  0.73214959     0.39700
H477        H  0.39380180  0.40329012  0.75188345     0.34600
C478        C  0.37368055  0.86206229  0.99543423     0.79400
N479        N  0.36234465  0.85279576  0.29439099    -0.78900
C480        C  0.34234632  0.83037152  0.29436564     0.81800
N481        N  0.33226397  0.81902044  0.32902436    -0.78800
C482        C  0.34270722  0.82855280  0.02980475     0.81900
N483        N  0.36329988  0.85049938  0.02995257    -0.80600
C484        C  0.16285111  0.87868576  0.99916112     0.79400
N485        N  0.17528054  0.86843967  0.29631917    -0.78900
C486        C  0.19831332  0.84910017  0.29651645     0.81800
N487        N  0.20887709  0.83871761  0.33126789    -0.78800
C488        C  0.19557412  0.84702143  0.03314060     0.81900
N489        N  0.17324368  0.86714381  0.03345274    -0.80600
C490        C  0.36077612  0.65570834  0.99757341     0.79400
N491        N  0.35012742  0.66660947  0.29707156    -0.78900
C492        C  0.32645290  0.68521344  0.29718511     0.81800
N493        N  0.31420206  0.69396246  0.33195974    -0.78800
C494        C  0.32442605  0.68300423  0.03235468     0.81900
N495        N  0.34827054  0.66464995  0.03218796    -0.80600
N496        N  0.01202774  0.96919032  0.32174253    -0.37400
N497        N  0.46470762  0.51482736  0.32962946    -0.58000
N498        N  0.00982445  0.56082483  0.32508141    -0.37400
N499        N  0.05674291  0.51614670  0.32951713    -0.58000
C500        C  0.48845015  0.95213502  0.32825767     0.26200
C501        C  0.03660895  0.95301602  0.32933707     0.26200
C502        C  0.48511988  0.57764244  0.33814904     0.26200
C503        C  0.03330372  0.57802991  0.33468688     0.26200
C504        C  0.44868965  0.98978376  0.31845331     0.34800
C505        C  0.44702752  0.53873798  0.32469587     0.35200
C506        C  0.07454386  0.99275609  0.32034730     0.34800
C507        C  0.07387065  0.54065082  0.32665618     0.34800
C508        C  0.49797625  0.92430322  0.34010893    -0.22700
C509        C  0.02836895  0.92465589  0.34075324    -0.22700
C510        C  0.49323346  0.60554338  0.35134862    -0.22700
C511        C  0.02316528  0.60561249  0.34669011    -0.22700
C512        C  0.41939907  0.49937966  0.31191660    -0.23800
C513        C  0.41880957  0.52976785  0.31388201    -0.23800
C514        C  0.10394576  0.50234581  0.31880454    -0.23800
C515        C  0.10323092  0.53271289  0.32032025    -0.23800
C516        C  0.45839998  0.96015611  0.32266727    -0.19100
C517        C  0.06628946  0.96268120  0.32454215    -0.19100
C518        C  0.06369724  0.57006822  0.33167622    -0.19100
C519        C  0.45551369  0.56848887  0.33155873    -0.19100
H520        H  0.48436793  0.90532273  0.34755746     0.13800
H521        H  0.04283161  0.90640777  0.34836527     0.13800
H522        H  0.47870233  0.62369212  0.35933884     0.13800
H523        H  0.03636756  0.62431761  0.35606406     0.13800
H524        H  0.40183076  0.98401690  0.30054355     0.12100
H525        H  0.39974379  0.54366350  0.30813403     0.12100
H526        H  0.12251099  0.98924723  0.30590733     0.12100
H527        H  0.12220166  0.54726300  0.31733949     0.12100
H528        H  0.01154969  0.99053448  0.31046509     0.25300
H529        H  0.01082323  0.53972943  0.31312117     0.25300
C530        C  0.14740219  0.66807955  0.99950800     0.79400
N531        N  0.15986957  0.67856112  0.29930935    -0.78900
C532        C  0.17926680  0.70154570  0.29985382     0.81800
N533        N  0.18855376  0.71256066  0.33483930    -0.78800
C534        C  0.17761843  0.70086832  0.03564717     0.81900
N535        N  0.15761757  0.67833037  0.03466858    -0.80600
N536        N  0.30293130  0.81669067  0.20741855    -0.06900
N537        N  0.30823905  0.83417349  0.23771492    -0.59100
N538        N  0.31977257  0.79215390  0.11662335    -0.06600
N539        N  0.33764632  0.79290305  0.08555115    -0.61200
N540        N  0.30197858  0.81526718  0.11663684    -0.06200
N541        N  0.30742736  0.83231812  0.08578211    -0.59000
N542        N  0.32042536  0.79336763  0.20819100    -0.05900
N543        N  0.33787919  0.79435097  0.23932160    -0.61500
C544        C  0.33009137  0.81998770  0.25715115     0.95200
C545        C  0.32972261  0.81814443  0.06686745     0.95000
N546        N  0.28765616  0.70576649  0.11930977    -0.07100
N547        N  0.28841163  0.68789611  0.08839525    -0.59600
N548        N  0.31186994  0.72444751  0.20979684    -0.05200
N549        N  0.32955995  0.71933798  0.23993805    -0.60900
N550        N  0.28862238  0.70683114  0.21121880    -0.07200
N551        N  0.28985063  0.68956092  0.24270695    -0.59900
N552        N  0.31093498  0.72337439  0.11901661    -0.04900
N553        N  0.32811005  0.71774780  0.08828365    -0.61000
Mn554      Mn  0.31682188  0.75819580  0.16340723     1.18400
C555        C  0.31387407  0.69560088  0.06960568     0.97300
C556        C  0.31557408  0.69753330  0.26005670     0.98000
N557        N  0.23303655  0.82427644  0.11841999    -0.07200
N558        N  0.23185712  0.84186875  0.08732714    -0.63500
N559        N  0.21104996  0.80784475  0.21059849    -0.06000
N560        N  0.19417584  0.81368318  0.24153525    -0.64200
N561        N  0.23423563  0.82555440  0.20966432    -0.06700
N562        N  0.23374921  0.84372127  0.24022607    -0.63700
N563        N  0.20963343  0.80685991  0.11985528    -0.05600
N564        N  0.19186736  0.81242534  0.08991243    -0.64400
Mn565      Mn  0.26818808  0.82149943  0.16292693     1.10700
C566        C  0.20603982  0.83430092  0.07008718     0.98500
C567        C  0.20854484  0.83606045  0.25954370     0.98600
N568        N  0.21961507  0.71554159  0.21268338    -0.06700
N569        N  0.21426204  0.69825668  0.24335541    -0.62100
N570        N  0.20063469  0.73773235  0.12158474    -0.06000
N571        N  0.18249141  0.73655509  0.09114710    -0.58800
N572        N  0.21828009  0.71449218  0.12181860    -0.07300
N573        N  0.21234134  0.69689635  0.09180939    -0.61600
N574        N  0.20200565  0.73880869  0.21328421    -0.06300
N575        N  0.18442589  0.73793227  0.24469043    -0.58800
Mn576      Mn  0.25341403  0.70955210  0.16622060     1.20200
Mn577      Mn  0.20471605  0.77294777  0.16636754     1.10100
Cl578      Cl  0.26075944  0.76553477  0.16467242    -0.86800
C579        C  0.19230763  0.71246003  0.26293459     0.95600
C580        C  0.18987121  0.71082056  0.07321849     0.95300
C581        C  0.12440948  0.62260380  0.02889102    -0.27100
C582        C  0.12539458  0.64351277  0.99811225    -0.15200
C583        C  0.11015541  0.63557555  0.29907408     0.35400
C584        C  0.08987101  0.61203478  0.29970007    -0.26600
C585        C  0.08615091  0.59428927  0.33326496    -0.15800
C586        C  0.10464982  0.59865207  0.02802303     0.36500
N587        N  0.10376417  0.57889195  0.06111942    -0.90100
H588        H  0.13917612  0.62477676  0.05381421     0.17600
H589        H  0.07668286  0.60767080  0.27372048     0.17600
N590        N  0.11252238  0.65346112  0.26426837    -0.89100
H591        H  0.10915138  0.55758119  0.05152198     0.35000
H592        H  0.08212692  0.57860774  0.07243722     0.40100
H593        H  0.09161853  0.66241640  0.25836246     0.39700
H594        H  0.11848275  0.63970975  0.24071627     0.34600
C595        C  0.42946554  0.61129576  0.30051796    -0.27100
C596        C  0.43192683  0.59155065  0.33225291    -0.15200
C597        C  0.41090752  0.59278303  0.02981669     0.35400
C598        C  0.38819025  0.61401783  0.02903932    -0.26600
C599        C  0.38604203  0.63452754  0.99791413    -0.15800
C600        C  0.40706505  0.63292874  0.29990520     0.36500
N601        N  0.40565651  0.65314741  0.26737399    -0.90100
H602        H  0.44497934  0.60981458  0.27602558     0.17600
H603        H  0.37193091  0.61414756  0.05273189     0.17600
N604        N  0.41289025  0.57251838  0.06223297    -0.89100
H605        H  0.40314761  0.64081577  0.24152295     0.35000
H606        H  0.42589463  0.66440712  0.26554993     0.40100
H607        H  0.41498507  0.58486076  0.08814008     0.39700
H608        H  0.39299917  0.56065550  0.06392711     0.34600
C609        C  0.10424258  0.93490504  0.03223628    -0.27100
C610        C  0.09035895  0.94017643  0.32615281    -0.15200
C611        C  0.09645380  0.92124390  0.29405833     0.35400
C612        C  0.12015440  0.90130644  0.29623461    -0.26600
C613        C  0.13802895  0.90052102  0.99924765    -0.15800
C614        C  0.12837364  0.91523661  0.03406519     0.36500
N615        N  0.14318534  0.91066760  0.07101239    -0.90100
H616        H  0.09686322  0.94637811  0.05860072     0.17600
H617        H  0.12449575  0.88697892  0.27123156     0.17600
N618        N  0.07917318  0.92212645  0.25875286    -0.89100
H619        H  0.13260070  0.92237723  0.09367862     0.35000
H620        H  0.16448105  0.91966710  0.06829833     0.40100
H621        H  0.07989372  0.94366627  0.24741689     0.39700
H622        H  0.05717210  0.91706166  0.26593346     0.34600
C623        C  0.41087528  0.89408247  0.29308978    -0.27100
C624        C  0.39584290  0.88644977  0.99518121    -0.15200
C625        C  0.39801227  0.90688398  0.02654349     0.35400
C626        C  0.41849836  0.93024552  0.02420055    -0.26600
C627        C  0.43584878  0.93605869  0.32304297    -0.15800
C628        C  0.43132777  0.91739370  0.29014604     0.36500
N629        N  0.44669818  0.92156244  0.25322371    -0.90100
H630        H  0.40768047  0.88008373  0.26753122     0.17600
H631        H  0.42002061  0.94577205  0.04846464     0.17600
N632        N  0.37903722  0.90450924  0.06046623    -0.89100
H633        H  0.46036630  0.90313511  0.24877032     0.35000
H634        H  0.46049208  0.94011277  0.25365149     0.40100
H635        H  0.36687933  0.92415128  0.06297225     0.39700
H636        H  0.39240781  0.90253074  0.08541878     0.34600
C637        C  0.37276130  0.86390029  0.32889920     0.79400
N638        N  0.36378743  0.85223400  0.62848994    -0.78900
C639        C  0.34297106  0.83057162  0.62822321     0.81800
N640        N  0.33226782  0.81957291  0.66271652    -0.78800
C641        C  0.34237743  0.82996405  0.36368418     0.81900
N642        N  0.36242050  0.85246280  0.36355688    -0.80600
C643        C  0.16302423  0.87803374  0.33076226     0.79400
N644        N  0.17463066  0.86857902  0.62942034    -0.78900
C645        C  0.19696216  0.84848646  0.63015219     0.81800
N646        N  0.20677849  0.83782404  0.66513353    -0.78800
C647        C  0.19648283  0.84776950  0.36577921     0.81900
N648        N  0.17346666  0.86715579  0.36544981    -0.80600
C649        C  0.36148253  0.65632928  0.33156347     0.79400
N650        N  0.34858388  0.66551627  0.63044074    -0.78900
C651        C  0.32542977  0.68473822  0.63082101     0.81800
N652        N  0.31325298  0.69330191  0.66568116    -0.78800
C653        C  0.32548259  0.68398364  0.36654696     0.81900
N654        N  0.34916958  0.66539928  0.36626602    -0.80600
N655        N  0.01229433  0.97006565  0.65337627    -0.37400
N656        N  0.46453103  0.51454749  0.66043538    -0.58000
N657        N  0.01110661  0.56036631  0.65714113    -0.37400
N658        N  0.05773526  0.51563967  0.66136152    -0.58000
C659        C  0.49054983  0.95146215  0.66239134     0.26200
C660        C  0.03719737  0.95416127  0.66009841     0.26200
C661        C  0.48435041  0.57728242  0.66902888     0.26200
C662        C  0.03488085  0.57758156  0.66528906     0.26200
C663        C  0.45023336  0.98803761  0.65039515     0.34800
C664        C  0.44649739  0.53821125  0.65588389     0.35200
C665        C  0.07467903  0.99447258  0.65175402     0.34800
C666        C  0.07476535  0.53990584  0.65547488     0.34800
C667        C  0.50045908  0.92423470  0.67598759    -0.22700
C668        C  0.02952920  0.92561541  0.67138272    -0.22700
C669        C  0.49239292  0.60491538  0.68324082    -0.22700
C670        C  0.02518707  0.60526992  0.67752941    -0.22700
C671        C  0.41903029  0.49853346  0.64448513    -0.23800
C672        C  0.41817257  0.52889880  0.64606318    -0.23800
C673        C  0.10418062  0.50121418  0.64676614    -0.23800
C674        C  0.10363895  0.53160808  0.64649246    -0.23800
C675        C  0.46042749  0.95872744  0.65603540    -0.19100
C676        C  0.06667951  0.96430445  0.65504223    -0.19100
C677        C  0.06508782  0.56942856  0.66065627    -0.19100
C678        C  0.45473489  0.56799621  0.66275670    -0.19100
H679        H  0.48712548  0.90531186  0.68451861     0.13800
H680        H  0.04434633  0.90752725  0.67844946     0.13800
H681        H  0.47779608  0.62274344  0.69224578     0.13800
H682        H  0.03870873  0.62401664  0.68591448     0.13800
H683        H  0.40331215  0.98100160  0.63356321     0.12100
H684        H  0.39882088  0.54253008  0.64091093     0.12100
H685        H  0.12273090  0.99154746  0.63758759     0.12100
H686        H  0.12243111  0.54596326  0.64084395     0.12100
H687        H  0.01141372  0.99143519  0.64240829     0.25300
H688        H  0.01169546  0.53923845  0.64529449     0.25300
C689        C  0.14914720  0.66673974  0.33350690     0.79400
N690        N  0.15995205  0.67928676  0.63129169    -0.78900
C691        C  0.17858567  0.70281633  0.63258493     0.81800
N692        N  0.18714375  0.71382387  0.66793189    -0.78800
C693        C  0.17838759  0.70069330  0.36915343     0.81900
N694        N  0.15894617  0.67769728  0.36848008    -0.80600
N695        N  0.30271260  0.81718779  0.54189660    -0.06900
N696        N  0.30829811  0.83461712  0.57217239    -0.59100
N697        N  0.31984489  0.79317472  0.45069385    -0.06600
N698        N  0.33753667  0.79403582  0.41940617    -0.61200
N699        N  0.30211618  0.81635093  0.45101880    -0.06200
N700        N  0.30746000  0.83353589  0.42024568    -0.59000
N701        N  0.32038406  0.79399024  0.54222841    -0.05900
N702        N  0.33826744  0.79501888  0.57289035    -0.61500
C703        C  0.33056655  0.82054921  0.59097207     0.95200
C704        C  0.32961741  0.81941788  0.40096671     0.95000
N705        N  0.28812219  0.70647619  0.45320474    -0.07100
N706        N  0.28920099  0.68856902  0.42234054    -0.59600
N707        N  0.31158574  0.72507429  0.54400145    -0.05200
N708        N  0.32905721  0.71964653  0.57430422    -0.60900
N709        N  0.28829154  0.70750309  0.54498303    -0.07200
N710        N  0.28926005  0.68994629  0.57617768    -0.59900
N711        N  0.31132035  0.72418481  0.45313699    -0.04900
N712        N  0.32875765  0.71860010  0.42265590    -0.61000
Mn713      Mn  0.31685034  0.75897312  0.49750150     1.18400
C714        C  0.31478506  0.69634860  0.40387212     0.97300
C715        C  0.31485989  0.69768511  0.59393117     0.98000
N716        N  0.23322211  0.82516724  0.45192089    -0.07200
N717        N  0.23228392  0.84279776  0.42081207    -0.63500
N718        N  0.21047200  0.80822575  0.54365326    -0.06000
N719        N  0.19338566  0.81358415  0.57453766    -0.64200
N720        N  0.23369638  0.82588376  0.54346470    -0.06700
N721        N  0.23298249  0.84360046  0.57448332    -0.63700
N722        N  0.20991785  0.80760144  0.45279611    -0.05600
N723        N  0.19245265  0.81313343  0.42252218    -0.64400
Mn724      Mn  0.26806481  0.82223176  0.49708125     1.10700
C725        C  0.20667191  0.83515313  0.40303519     0.98500
C726        C  0.20766391  0.83563428  0.59332392     0.98600
N727        N  0.21938462  0.71640985  0.54578717    -0.06700
N728        N  0.21402635  0.69941269  0.57672373    -0.62100
N729        N  0.20109354  0.73834753  0.45443447    -0.06000
N730        N  0.18300488  0.73689084  0.42398391    -0.58800
N731        N  0.21875037  0.71512858  0.45507009    -0.07300
N732        N  0.21289699  0.69725544  0.42536551    -0.61600
N733        N  0.20170490  0.73962119  0.54598878    -0.06300
N734        N  0.18409492  0.73903150  0.57736465    -0.58800
Mn735      Mn  0.25350345  0.71028793  0.49971772     1.20200
Mn736      Mn  0.20468901  0.77359433  0.49913354     1.10100
Cl737      Cl  0.26076661  0.76626215  0.49829126    -0.86800
C738        C  0.19208636  0.71381095  0.59607756     0.95600
C739        C  0.19048000  0.71101529  0.40651335     0.95300
C740        C  0.12365251  0.62382883  0.36649163    -0.27100
C741        C  0.12742217  0.64176452  0.33277533    -0.15200
C742        C  0.11052054  0.63613456  0.62948967     0.35400
C743        C  0.09061416  0.61225607  0.62914320    -0.26600
C744        C  0.08779332  0.59336853  0.66171441    -0.15800
C745        C  0.10343434  0.60012883  0.36714020     0.36500
N746        N  0.10079939  0.58296406  0.40277541    -0.90100
H747        H  0.13663389  0.62807582  0.39267039     0.17600
H748        H  0.07690348  0.60867684  0.60343558     0.17600
N749        N  0.11195664  0.65539573  0.59591590    -0.89100
H750        H  0.12103375  0.57214400  0.40711160     0.35000
H751        H  0.08463353  0.56653246  0.40048873     0.40100
H752        H  0.09079896  0.66419028  0.59127648     0.39700
H753        H  0.11772867  0.64269353  0.57126127     0.34600
C754        C  0.42889750  0.61177475  0.63395388    -0.27100
C755        C  0.43085846  0.59076112  0.66426973    -0.15200
C756        C  0.41215919  0.59391540  0.36432741     0.35400
C757        C  0.38971977  0.61545755  0.36381772    -0.26600
C758        C  0.38655473  0.63486642  0.33158764    -0.15800
C759        C  0.40609863  0.63296418  0.63378524     0.36500
N760        N  0.40529839  0.65462437  0.60289895    -0.90100
H761        H  0.44511996  0.61163614  0.61020139     0.17600
H762        H  0.37439366  0.61658275  0.38853355     0.17600
N763        N  0.41488257  0.57441006  0.39745610    -0.89100
H764        H  0.40386723  0.64347911  0.57596048     0.35000
H765        H  0.42532270  0.66631420  0.60317196     0.40100
H766        H  0.41796315  0.58733198  0.42266989     0.39700
H767        H  0.39488710  0.56289996  0.40075318     0.34600
C768        C  0.10784702  0.93841822  0.36006794    -0.27100
C769        C  0.09094146  0.94214078  0.65671400    -0.15200
C770        C  0.09854624  0.92460918  0.62384590     0.35400
C771        C  0.12188253  0.90432230  0.62670375    -0.26600
C772        C  0.13796581  0.89949142  0.33012782    -0.15800
C773        C  0.13163314  0.91836781  0.36247477     0.36500
N774        N  0.14962000  0.91764785  0.39732766    -0.90100
H775        H  0.10308553  0.95310710  0.38456747     0.17600
H776        H  0.12731645  0.89100301  0.60108937     0.17600
N777        N  0.08296133  0.92707745  0.58728703    -0.89100
H778        H  0.14152148  0.93245057  0.41851655     0.35000
H779        H  0.17079634  0.92512470  0.38940520     0.40100
H780        H  0.08448795  0.94900245  0.57750640     0.39700
H781        H  0.06060211  0.92218275  0.59244501     0.34600
C782        C  0.41335367  0.89225943  0.62771275    -0.27100
C783        C  0.39477997  0.88859037  0.32811219    -0.15200
C784        C  0.39967660  0.90717964  0.36098100     0.35400
C785        C  0.41999342  0.93068302  0.35804660    -0.26600
C786        C  0.43828280  0.93429497  0.65747564    -0.15800
C787        C  0.43394479  0.91539020  0.62496875     0.36500
N788        N  0.45001381  0.91939780  0.58874351    -0.90100
H789        H  0.41032107  0.87812912  0.60224878     0.17600
H790        H  0.42365229  0.94472319  0.38346784     0.17600
N791        N  0.38387922  0.90267799  0.39729435    -0.89100
H792        H  0.47268467  0.91755152  0.59455046     0.35000
H793        H  0.44584786  0.94079560  0.57831719     0.40100
H794        H  0.37211686  0.92204650  0.40381434     0.39700
H795        H  0.39940819  0.89927052  0.41962636     0.34600
C796        C  0.37429550  0.86299963  0.66314637     0.79400
N797        N  0.36287748  0.85164244  0.96076754    -0.78900
C798        C  0.34222302  0.82980846  0.96057674     0.81800
N799        N  0.33206842  0.81832763  0.99508728    -0.78800
C800        C  0.34247048  0.83012408  0.69750400     0.81900
N801        N  0.36330304  0.85191716  0.69769400    -0.80600
C802        C  0.16221489  0.87858722  0.66353260     0.79400
N803        N  0.17461815  0.86905982  0.96438865    -0.78900
C804        C  0.19694239  0.84890020  0.96392802     0.81800
N805        N  0.20739840  0.83785066  0.99835527    -0.78800
C806        C  0.19430886  0.84735401  0.69936564     0.81900
N807        N  0.17194356  0.86749472  0.69850193    -0.80600
C808        C  0.35952240  0.65450107  0.66477425     0.79400
N809        N  0.34948483  0.66590110  0.96296337    -0.78900
C810        C  0.32557375  0.68425458  0.96296724     0.81800
N811        N  0.31313677  0.69284997  0.99770743    -0.78800
C812        C  0.32406046  0.68253800  0.70009932     0.81900
N813        N  0.34727249  0.66335017  0.69961897    -0.80600
N814        N  0.01157750  0.96917469  0.99172076    -0.37400
N815        N  0.46517155  0.51492655  0.99848462    -0.58000
N816        N  0.00950507  0.56050955  0.99032653    -0.37400
N817        N  0.05722423  0.51653136  0.99486880    -0.58000
C818        C  0.48940435  0.95064065  0.99718962     0.26200
C819        C  0.03613621  0.95290618  0.99891773     0.26200
C820        C  0.48514510  0.57791309  0.00464385     0.26200
C821        C  0.03298672  0.57812210  0.99855932     0.26200
C822        C  0.44926261  0.98762654  0.98653578     0.34800
C823        C  0.44727866  0.53860835  0.99276708     0.35200
C824        C  0.07424358  0.99289755  0.99170886     0.34800
C825        C  0.07345979  0.54119552  0.98785174     0.34800
C826        C  0.49933208  0.92307805  0.00952252    -0.22700
C827        C  0.02789141  0.92413090  0.00831100    -0.22700
C828        C  0.49325702  0.60603545  0.01700064    -0.22700
C829        C  0.02281469  0.60564739  0.01078102    -0.22700
C830        C  0.41992688  0.49879679  0.98166602    -0.23800
C831        C  0.41910960  0.52919471  0.98245965    -0.23800
C832        C  0.10318563  0.50306622  0.97643094    -0.23800
C833        C  0.10203078  0.53349281  0.97648293    -0.23800
C834        C  0.45927952  0.95814757  0.99123004    -0.19100
C835        C  0.06581998  0.96287515  0.99552650    -0.19100
C836        C  0.06335005  0.57053926  0.99385705    -0.19100
C837        C  0.45555800  0.56859244  0.99838053    -0.19100
H838        H  0.48600029  0.90397946  0.01732284     0.13800
H839        H  0.04234248  0.90568723  0.01508513     0.13800
H840        H  0.47874773  0.62435241  0.02434380     0.13800
H841        H  0.03597552  0.62461486  0.01929223     0.13800
H842        H  0.40232487  0.98121733  0.96930823     0.12100
H843        H  0.39993190  0.54280195  0.97620295     0.12100
H844        H  0.12256680  0.98915663  0.97952203     0.12100
H845        H  0.12019060  0.54827348  0.96928630     0.12100
H846        H  0.01115237  0.99086945  0.98180213     0.25300
H847        H  0.01043946  0.53939067  0.97852888     0.25300
C848        C  0.14919264  0.66687654  0.66501749     0.79400
N849        N  0.15824510  0.67995641  0.96546504    -0.78900
C850        C  0.17820716  0.70240441  0.96631693     0.81800
N851        N  0.18791480  0.71283830  0.00143731    -0.78800
C852        C  0.17697671  0.70133876  0.70188931     0.81900
N853        N  0.15828896  0.67772046  0.70041436    -0.80600
N854        N  0.30166609  0.81677218  0.87443113    -0.06900
N855        N  0.30738536  0.83413914  0.90472647    -0.59100
N856        N  0.31857721  0.79281749  0.78340233    -0.06600
N857        N  0.33682598  0.79399595  0.75272254    -0.61200
N858        N  0.30082915  0.81598817  0.78361236    -0.06200
N859        N  0.30672007  0.83347411  0.75329163    -0.59000
N860        N  0.31920618  0.79346877  0.87470626    -0.05900
N861        N  0.33710614  0.79434941  0.90533776    -0.61500
C862        C  0.32958666  0.81990395  0.92345012     0.95200
C863        C  0.32926642  0.81955910  0.73450427     0.95000
N864        N  0.28669171  0.70598512  0.78610554    -0.07100
N865        N  0.28790784  0.68757887  0.75579929    -0.59600
N866        N  0.31072623  0.72448602  0.87633040    -0.05200
N867        N  0.32862949  0.71886233  0.90611179    -0.60900
N868        N  0.28743165  0.70692752  0.87767006    -0.07200
N869        N  0.28883684  0.68919683  0.90869207    -0.59900
N870        N  0.30991093  0.72366617  0.78577246    -0.04900
N871        N  0.32750538  0.71757587  0.75563324    -0.61000
Mn872      Mn  0.31559819  0.75851876  0.82999800     1.18400
C873        C  0.31362045  0.69499538  0.73742189     0.97300
C874        C  0.31474546  0.69677944  0.92586673     0.98000
N875        N  0.23155712  0.82499381  0.78522198    -0.07200
N876        N  0.23028750  0.84266362  0.75418153    -0.63500
N877        N  0.20951327  0.80819627  0.87737074    -0.06000
N878        N  0.19259146  0.81390065  0.90833877    -0.64200
N879        N  0.23272972  0.82586928  0.87665183    -0.06700
N880        N  0.23218613  0.84389984  0.90736155    -0.63700
N881        N  0.20819114  0.80751721  0.78654416    -0.05600
N882        N  0.19039155  0.81311791  0.75662557    -0.64400
Mn883      Mn  0.26682918  0.82196050  0.82989632     1.10700
C884        C  0.20442054  0.83515582  0.73692960     0.98500
C885        C  0.20692517  0.83622335  0.92655102     0.98600
N886        N  0.21844729  0.71607249  0.87908592    -0.06700
N887        N  0.21324647  0.69897112  0.90996971    -0.62100
N888        N  0.19953822  0.73828065  0.78795929    -0.06000
N889        N  0.18144886  0.73706659  0.75746114    -0.58800
N890        N  0.21719450  0.71504298  0.78829070    -0.07300
N891        N  0.21128830  0.69740440  0.75833814    -0.61600
N892        N  0.20075553  0.73927720  0.87953599    -0.06300
N893        N  0.18324569  0.73853305  0.91099117    -0.58800
Mn894      Mn  0.25225794  0.70995540  0.83273435     1.20200
Mn895      Mn  0.20340623  0.77343007  0.83284585     1.10100
Cl896      Cl  0.25951292  0.76596001  0.83126722    -0.86800
C897        C  0.19131989  0.71325215  0.92949225     0.95600
C898        C  0.18885080  0.71128806  0.73965274     0.95300
C899        C  0.12542317  0.62217380  0.69569228    -0.27100
C900        C  0.12819786  0.64140970  0.66314740    -0.15200
C901        C  0.10543103  0.64050524  0.96625732     0.35400
C902        C  0.08620735  0.61599330  0.96497233    -0.26600
C903        C  0.08562459  0.59496965  0.99542611    -0.15800
C904        C  0.10555705  0.59828977  0.69523743     0.36500
N905        N  0.10336934  0.57976793  0.72948672    -0.90100
H906        H  0.13877493  0.62564693  0.72174030     0.17600
H907        H  0.07101170  0.61358285  0.94054311     0.17600
N908        N  0.10408512  0.66273393  0.93589569    -0.89100
H909        H  0.10884230  0.55809633  0.72150566     0.35000
H910        H  0.08137466  0.58002562  0.73948384     0.40100
H911        H  0.09668429  0.68235465  0.94905040     0.39700
H912        H  0.08832321  0.65711360  0.91468352     0.34600
C913        C  0.43035596  0.61255195  0.96834045    -0.27100
C914        C  0.43177393  0.59155855  0.99883753    -0.15200
C915        C  0.41003129  0.59132065  0.69535516     0.35400
C916        C  0.38713226  0.61239892  0.69521367    -0.26600
C917        C  0.38462174  0.63313263  0.66439324    -0.15800
C918        C  0.40789114  0.63416245  0.96781585     0.36500
N919        N  0.40787144  0.65611975  0.93727797    -0.90100
H920        H  0.44683070  0.61218513  0.94490386     0.17600
H921        H  0.37102178  0.61222385  0.71908659     0.17600
N922        N  0.41213931  0.57044533  0.72706744    -0.89100
H923        H  0.40668278  0.64525220  0.91011897     0.35000
H924        H  0.42807378  0.66747436  0.93827147     0.40100
H925        H  0.41410072  0.58228675  0.75340370     0.39700
H926        H  0.39233893  0.55840302  0.72829928     0.34600
C927        C  0.10658950  0.93885525  0.69194680    -0.27100
C928        C  0.08986867  0.94051648  0.99656601    -0.15200
C929        C  0.09951471  0.92621841  0.96194250     0.35400
C930        C  0.12333435  0.90648215  0.96353854    -0.26600
C931        C  0.13777430  0.90075742  0.66208277    -0.15800
C932        C  0.12996250  0.91842816  0.69510349     0.36500
N933        N  0.14588916  0.91599037  0.73155966    -0.90100
H934        H  0.10056360  0.95249579  0.71703868     0.17600
H935        H  0.13018088  0.89561430  0.93650121     0.17600
N936        N  0.08558040  0.93159116  0.92475085    -0.89100
H937        H  0.13669039  0.92990337  0.75303467     0.35000
H938        H  0.16747349  0.92361323  0.72637104     0.40100
H939        H  0.08708887  0.95421648  0.91842681     0.39700
H940        H  0.06314235  0.92599651  0.92733299     0.34600
C941        C  0.41456342  0.88994872  0.96214542    -0.27100
C942        C  0.39687364  0.88718950  0.66256896    -0.15200
C943        C  0.40172647  0.90593977  0.69533599     0.35400
C944        C  0.42221433  0.92931734  0.69237752    -0.26600
C945        C  0.43706544  0.93371564  0.99115288    -0.15800
C946        C  0.43512218  0.91319004  0.95971037     0.36500
N947        N  0.45313264  0.91545480  0.92464038    -0.90100
H948        H  0.41325673  0.87447266  0.93780533     0.17600
H949        H  0.42570960  0.94363189  0.71756354     0.17600
N950        N  0.38563157  0.90180191  0.73148873    -0.89100
H951        H  0.46733218  0.89714119  0.92404392     0.35000
H952        H  0.46647867  0.93432812  0.92472161     0.40100
H953        H  0.37397179  0.92130203  0.73762132     0.39700
H954        H  0.40097392  0.89843630  0.75405898     0.34600
C955        C  0.87414862  0.36250893  0.99721405     0.79400
N956        N  0.86242452  0.35262984  0.29389828    -0.78900
C957        C  0.84222612  0.33035687  0.29391970     0.81800
N958        N  0.83176817  0.31942071  0.32861828    -0.78800
C959        C  0.84242024  0.32920253  0.03079975     0.81900
N960        N  0.86333584  0.35084737  0.03146459    -0.80600
C961        C  0.66168077  0.37676437  0.99931827     0.79400
N962        N  0.67274286  0.36673755  0.29591663    -0.78900
C963        C  0.69534389  0.34686264  0.29581146     0.81800
N964        N  0.70593370  0.33623705  0.33040624    -0.78800
C965        C  0.69407007  0.34499739  0.03349952     0.81900
N966        N  0.67186246  0.36526467  0.03374474    -0.80600
C967        C  0.86076840  0.15500651  0.99628337     0.79400
N968        N  0.84812549  0.16514699  0.29598528    -0.78900
C969        C  0.82528993  0.18463683  0.29710957     0.81800
N970        N  0.81420802  0.19383162  0.33230547    -0.78800
C971        C  0.82543445  0.18268824  0.03243538     0.81900
N972        N  0.84857994  0.16343737  0.03137338    -0.80600
N973        N  0.51162890  0.47033203  0.32420070    -0.37400
N974        N  0.96475824  0.01352975  0.32420886    -0.58000
N975        N  0.50987232  0.06058526  0.32924225    -0.37400
N976        N  0.55677965  0.01619552  0.32915057    -0.58000
C977        C  0.98819132  0.45213691  0.32951244     0.26200
C978        C  0.53606702  0.45381499  0.33141367     0.26200
C979        C  0.98433346  0.07641621  0.33115920     0.26200
C980        C  0.53345500  0.07718797  0.33998809     0.26200
C981        C  0.94840727  0.48956877  0.31778629     0.34800
C982        C  0.94655948  0.03703686  0.31925725     0.35200
C983        C  0.57449188  0.49342176  0.32457628     0.34800
C984        C  0.57341463  0.04088376  0.32466509     0.34800
C985        C  0.99746607  0.42441868  0.34216225    -0.22700
C986        C  0.52756230  0.42525981  0.34151289    -0.22700
C987        C  0.99218349  0.10412990  0.34527214    -0.22700
C988        C  0.52357696  0.10367699  0.35604470    -0.22700
C989        C  0.91900676  0.99700193  0.31068570    -0.23800
C990        C  0.91806860  0.02741030  0.31097132    -0.23800
C991        C  0.60283119  0.00307745  0.31058045    -0.23800
C992        C  0.60204104  0.03342017  0.31325556    -0.23800
C993        C  0.95820918  0.46005459  0.32297410    -0.19100
C994        C  0.56587635  0.46335690  0.32730760    -0.19100
C995        C  0.56359093  0.06987587  0.33329508    -0.19100
C996        C  0.95476664  0.06698558  0.32485245    -0.19100
H997        H  0.98370938  0.40556846  0.34971478     0.13800
H998        H  0.54186022  0.40675041  0.34853536     0.13800
H999        H  0.97746383  0.12194312  0.35396686     0.13800
H1000       H  0.53699290  0.12174732  0.36694779     0.13800
H1001       H  0.90118932  0.48323332  0.30179626     0.12100
H1002       H  0.89854416  0.04087666  0.30619465     0.12100
H1003       H  0.62232180  0.48971701  0.30937914     0.12100
H1004       H  0.62051653  0.04825302  0.30797674     0.12100
H1005       H  0.51139602  0.49187095  0.31372961     0.25300
H1006       H  0.51065629  0.04065505  0.31406654     0.25300
C1007       C  0.64885418  0.16596857  0.99811697     0.79400
N1008       N  0.65986672  0.17746921  0.29908327    -0.78900
C1009       C  0.67959958  0.20013956  0.29937853     0.81800
N1010       N  0.68940169  0.21099775  0.33421000    -0.78800
C1011       C  0.67869717  0.19888335  0.03448623     0.81900
N1012       N  0.65887069  0.17625607  0.03332426    -0.80600
N1013       N  0.80180218  0.31591879  0.20788997    -0.06900
N1014       N  0.80734563  0.33359513  0.23793562    -0.59100
N1015       N  0.81914011  0.29187852  0.11688477    -0.06600
N1016       N  0.83725999  0.29309840  0.08608054    -0.61200
N1017       N  0.80109727  0.31481151  0.11701612    -0.06200
N1018       N  0.80662708  0.33218851  0.08648122    -0.59000
N1019       N  0.81971344  0.29290703  0.20830645    -0.05900
N1020       N  0.83771931  0.29432071  0.23885339    -0.61500
C1021       C  0.82983631  0.31989634  0.25675939     0.95200
C1022       C  0.82923310  0.31841695  0.06763845     0.95000
N1023       N  0.78814929  0.20475071  0.11928149    -0.07100
N1024       N  0.78948130  0.18665204  0.08863499    -0.59600
N1025       N  0.81123462  0.22400668  0.20991680    -0.05200
N1026       N  0.82846462  0.21927877  0.24060530    -0.60900
N1027       N  0.78821978  0.20607594  0.21086479    -0.07200
N1028       N  0.78914781  0.18891937  0.24242912    -0.59900
N1029       N  0.81114330  0.22273066  0.11912620    -0.04900
N1030       N  0.82866770  0.21715163  0.08871888    -0.61000
Mn1031     Mn  0.81636159  0.25772859  0.16352467     1.18400
C1032       C  0.81502217  0.19456399  0.07018523     0.97300
C1033       C  0.81436671  0.19742237  0.26047802     0.98000
N1034       N  0.73182272  0.32263732  0.11852725    -0.07200
N1035       N  0.73029656  0.34041873  0.08768088    -0.63500
N1036       N  0.70950923  0.30579273  0.21007294    -0.06000
N1037       N  0.69207220  0.31156080  0.24049577    -0.64200
N1038       N  0.73250833  0.32376148  0.20963014    -0.06700
N1039       N  0.73128703  0.34206026  0.24002078    -0.63700
N1040       N  0.70876049  0.30476414  0.11964062    -0.05600
N1041       N  0.69091713  0.31012481  0.08976229    -0.64400
Mn1042     Mn  0.76693178  0.32034187  0.16322355     1.10700
C1043       C  0.70463586  0.33244026  0.07035097     0.98500
C1044       C  0.70584031  0.33423554  0.25867489     0.98600
N1045       N  0.71942703  0.21382383  0.21186906    -0.06700
N1046       N  0.71443885  0.19675731  0.24284406    -0.62100
N1047       N  0.70066994  0.23570920  0.12077548    -0.06000
N1048       N  0.68270779  0.23437810  0.09018126    -0.58800
N1049       N  0.71865672  0.21274226  0.12100234    -0.07300
N1050       N  0.71317186  0.19517018  0.09083118    -0.61600
N1051       N  0.70151170  0.23683727  0.21228866    -0.06300
N1052       N  0.68403235  0.23601897  0.24375684    -0.58800
Mn1053     Mn  0.75349435  0.20823854  0.16566222     1.20200
Mn1054     Mn  0.70403847  0.27087146  0.16570303     1.10100
Cl1055     Cl  0.76020269  0.26430641  0.16440221    -0.86800
C1056       C  0.69235691  0.21085059  0.26230649     0.95600
C1057       C  0.69061170  0.20885278  0.07214605     0.95300
C1058       C  0.62500573  0.12151146  0.02886051    -0.27100
C1059       C  0.62701333  0.14130523  0.99684123    -0.15200
C1060       C  0.60848945  0.13639419  0.30046762     0.35400
C1061       C  0.58808889  0.11294818  0.30124941    -0.26600
C1062       C  0.58581600  0.09419760  0.33402938    -0.15800
C1063       C  0.60479684  0.09796071  0.02874294     0.36500
N1064       N  0.60304814  0.07912025  0.06272302    -0.90100
H1065       H  0.63925157  0.12427030  0.05421204     0.17600
H1066       H  0.57372287  0.10946995  0.27616017     0.17600
N1067       N  0.60926180  0.15570173  0.26691137    -0.89100
H1068       H  0.60789808  0.05743375  0.05412546     0.35000
H1069       H  0.58129066  0.07969904  0.07359728     0.40100
H1070       H  0.58816835  0.16498293  0.26356409     0.39700
H1071       H  0.61389819  0.14293274  0.24190686     0.34600
C1072       C  0.92550439  0.10752629  0.29344096    -0.27100
C1073       C  0.93079964  0.08966585  0.32643046    -0.15200
C1074       C  0.91086446  0.09160888  0.02700273     0.35400
C1075       C  0.88844054  0.11313863  0.02696786    -0.26600
C1076       C  0.88543777  0.13311045  0.99534737    -0.15800
C1077       C  0.90274780  0.12880999  0.29383734     0.36500
N1078       N  0.89818447  0.14663584  0.25940743    -0.90100
H1079       H  0.93902107  0.10479457  0.26712462     0.17600
H1080       H  0.87312403  0.11395257  0.05171397     0.17600
N1081       N  0.91360612  0.07173261  0.05973595    -0.89100
H1082       H  0.89367892  0.13252053  0.23576153     0.35000
H1083       H  0.91791500  0.15792146  0.25309490     0.40100
H1084       H  0.91665080  0.08436921  0.08521178     0.39700
H1085       H  0.89363508  0.06014414  0.06277386     0.34600
C1086       C  0.60885150  0.43874110  0.02961777    -0.27100
C1087       C  0.58971061  0.44053929  0.32748158    -0.15200
C1088       C  0.59531469  0.42186162  0.29478485     0.35400
C1089       C  0.61851886  0.40124182  0.29672816    -0.26600
C1090       C  0.63732676  0.39891071  0.99925658    -0.15800
C1091       C  0.63227566  0.41827834  0.03140143     0.36500
N1092       N  0.65115074  0.41756742  0.06542107    -0.90100
H1093       H  0.60493229  0.45366131  0.05413201     0.17600
H1094       H  0.62250037  0.38704805  0.27148753     0.17600
N1095       N  0.57850319  0.42355181  0.25892337    -0.89100
H1096       H  0.64401982  0.43289704  0.08655125     0.35000
H1097       H  0.67231388  0.42432799  0.05634362     0.40100
H1098       H  0.56268692  0.44040870  0.25980531     0.39700
H1099       H  0.56694888  0.40360577  0.25595508     0.34600
C1100       C  0.91324793  0.39186224  0.29474078    -0.27100
C1101       C  0.89642348  0.38685677  0.99751980    -0.15200
C1102       C  0.89932799  0.40633744  0.02988160     0.35400
C1103       C  0.91978639  0.42974202  0.02800558    -0.26600
C1104       C  0.93573289  0.43586529  0.32307825    -0.15800
C1105       C  0.93377837  0.41510187  0.29194204     0.36500
N1106       N  0.95181805  0.41707577  0.25686373    -0.90100
H1107       H  0.91203592  0.37615223  0.27066328     0.17600
H1108       H  0.92192985  0.44448912  0.05303331     0.17600
N1109       N  0.88100023  0.40309660  0.06429684    -0.89100
H1110       H  0.96604692  0.39878093  0.25658339     0.35000
H1111       H  0.96513142  0.43597382  0.25665161     0.40100
H1112       H  0.86894775  0.42268708  0.06812760     0.39700
H1113       H  0.89483063  0.40043068  0.08868580     0.34600
C1114       C  0.87249702  0.36401259  0.32845102     0.79400
N1115       N  0.86083821  0.35490714  0.62784303    -0.78900
C1116       C  0.84071292  0.33256383  0.62780039     0.81800
N1117       N  0.83054421  0.32128475  0.66245070    -0.78800
C1118       C  0.84162189  0.33060928  0.36326646     0.81900
N1119       N  0.86179364  0.35297649  0.36313538    -0.80600
C1120       C  0.66093611  0.37654405  0.33056654     0.79400
N1121       N  0.67304425  0.36718662  0.62999596    -0.78900
C1122       C  0.69571991  0.34742497  0.63012773     0.81800
N1123       N  0.70638933  0.33714666  0.66491196    -0.78800
C1124       C  0.69399872  0.34550380  0.36507716     0.81900
N1125       N  0.67144792  0.36542901  0.36509216    -0.80600
C1126       C  0.86003461  0.15440598  0.32980695     0.79400
N1127       N  0.84902851  0.16614277  0.62967212    -0.78900
C1128       C  0.82659694  0.18612091  0.63049042     0.81800
N1129       N  0.81510687  0.19510584  0.66553895    -0.78800
C1130       C  0.82589600  0.18339752  0.36639583     0.81900
N1131       N  0.84889062  0.16385873  0.36512560    -0.80600
N1132       N  0.51166291  0.47020360  0.65531469    -0.37400
N1133       N  0.96469629  0.01370535  0.65860901    -0.58000
N1134       N  0.51043084  0.06021610  0.65626448    -0.37400
N1135       N  0.55801186  0.01654145  0.65898142    -0.58000
C1136       C  0.98887124  0.45201141  0.66510440     0.26200
C1137       C  0.53616459  0.45387868  0.66280363     0.26200
C1138       C  0.98382727  0.07708277  0.66519054     0.26200
C1139       C  0.53375608  0.07763537  0.66577229     0.26200
C1140       C  0.94945663  0.48944404  0.65248611     0.34800
C1141       C  0.94622348  0.03709633  0.65462325     0.35200
C1142       C  0.57419397  0.49357416  0.65487787     0.34800
C1143       C  0.57451068  0.04129932  0.65412632     0.34800
C1144       C  0.99803336  0.42462314  0.67905873    -0.22700
C1145       C  0.52784528  0.42546260  0.67383325    -0.22700
C1146       C  0.99149382  0.10524934  0.67789419    -0.22700
C1147       C  0.52343679  0.10454397  0.68000977    -0.22700
C1148       C  0.91881846  0.99688133  0.64646533    -0.23800
C1149       C  0.91764854  0.02726798  0.64719638    -0.23800
C1150       C  0.60483068  0.00340175  0.64440070    -0.23800
C1151       C  0.60361401  0.03380715  0.64517102    -0.23800
C1152       C  0.95902093  0.45998013  0.65811297    -0.19100
C1153       C  0.56584735  0.46351921  0.65835501    -0.19100
C1154       C  0.56410025  0.07046900  0.66044055    -0.19100
C1155       C  0.95430931  0.06714177  0.65984685    -0.19100
H1156       H  0.98418607  0.40602948  0.68742498     0.13800
H1157       H  0.54224748  0.40713414  0.68130302     0.13800
H1158       H  0.97666058  0.12312060  0.68601766     0.13800
H1159       H  0.53651852  0.12320466  0.68982959     0.13800
H1160       H  0.90234712  0.48328221  0.63582816     0.12100
H1161       H  0.89793042  0.04058394  0.64311498     0.12100
H1162       H  0.62204363  0.49006107  0.63983199     0.12100
H1163       H  0.62211735  0.04868621  0.64032137     0.12100
H1164       H  0.51124534  0.49158494  0.64426887     0.25300
H1165       H  0.51149781  0.03965289  0.64276998     0.25300
C1166       C  0.64938987  0.16575976  0.33343473     0.79400
N1167       N  0.65958576  0.17930128  0.63191064    -0.78900
C1168       C  0.67968945  0.20161886  0.63281555     0.81800
N1169       N  0.68923902  0.21213192  0.66794410    -0.78800
C1170       C  0.67942532  0.19919945  0.36866290     0.81900
N1171       N  0.65967010  0.17649481  0.36825539    -0.80600
N1172       N  0.80125475  0.31786628  0.54108697    -0.06900
N1173       N  0.80623152  0.33547961  0.57137252    -0.59100
N1174       N  0.81906325  0.29380601  0.45013858    -0.06600
N1175       N  0.83702553  0.29495925  0.41916617    -0.61200
N1176       N  0.80085562  0.31661513  0.45013343    -0.06200
N1177       N  0.80613998  0.33383781  0.41935817    -0.59000
N1178       N  0.81938099  0.29501448  0.54172978    -0.05900
N1179       N  0.83697366  0.29649979  0.57269303    -0.61500
C1180       C  0.82860175  0.32192839  0.59059169     0.95200
C1181       C  0.82877212  0.32011451  0.40050169     0.95000
N1182       N  0.78885653  0.20633443  0.45308688    -0.07100
N1183       N  0.79024615  0.18793998  0.42277303    -0.59600
N1184       N  0.81206620  0.22589469  0.54355168    -0.05200
N1185       N  0.82957633  0.22101458  0.57396522    -0.60900
N1186       N  0.78914162  0.20785446  0.54461529    -0.07200
N1187       N  0.79041769  0.19046571  0.57592379    -0.59900
N1188       N  0.81174279  0.22445446  0.45256578    -0.04900
N1189       N  0.82925228  0.21865763  0.42215708    -0.61000
Mn1190     Mn  0.81665743  0.25969657  0.49695156     1.18400
C1191       C  0.81572918  0.19572553  0.40410716     0.97300
C1192       C  0.81575670  0.19889412  0.59373043     0.98000
N1193       N  0.73158141  0.32402980  0.45108927    -0.07200
N1194       N  0.73016061  0.34145133  0.41980968    -0.63500
N1195       N  0.70933388  0.30719398  0.54332033    -0.06000
N1196       N  0.69231987  0.31235169  0.57438360    -0.64200
N1197       N  0.73220147  0.32531215  0.54278495    -0.06700
N1198       N  0.73132152  0.34310352  0.57374564    -0.63700
N1199       N  0.70863972  0.30600527  0.45227931    -0.05600
N1200       N  0.69098937  0.31093528  0.42201287    -0.64400
Mn1201     Mn  0.76657992  0.32204184  0.49619746     1.10700
C1202       C  0.70467640  0.33312834  0.40222663     0.98500
C1203       C  0.70625550  0.33476898  0.59293189     0.98600
N1204       N  0.72015167  0.21546520  0.54578410    -0.06700
N1205       N  0.71517815  0.19849197  0.57687264    -0.62100
N1206       N  0.70126578  0.23682684  0.45434614    -0.06000
N1207       N  0.68337588  0.23522043  0.42371287    -0.58800
N1208       N  0.71938840  0.21396608  0.45488068    -0.07300
N1209       N  0.71407323  0.19619670  0.42486753    -0.61600
N1210       N  0.70199393  0.23830367  0.54585200    -0.06300
N1211       N  0.68437493  0.23744208  0.57718271    -0.58800
Mn1212     Mn  0.75425407  0.20983006  0.49955693     1.20200
Mn1213     Mn  0.70420421  0.27219716  0.49891914     1.10100
Cl1214     Cl  0.76042974  0.26593359  0.49781630    -0.86800
C1215       C  0.69287836  0.21247437  0.59605764     0.95600
C1216       C  0.69150062  0.20966501  0.40595333     0.95300
C1217       C  0.62481860  0.12234806  0.36604195    -0.27100
C1218       C  0.62736823  0.14118419  0.33303327    -0.15200
C1219       C  0.60777786  0.13895445  0.63155246     0.35400
C1220       C  0.58813331  0.11485959  0.63057817    -0.26600
C1221       C  0.58607493  0.09504757  0.66229797    -0.15800
C1222       C  0.60427371  0.09905692  0.36684290     0.36500
N1223       N  0.60224192  0.08095032  0.40148611    -0.90100
H1224       H  0.63892381  0.12562499  0.39142259     0.17600
H1225       H  0.57405115  0.11182504  0.60510466     0.17600
N1226       N  0.60800273  0.15961589  0.59943940    -0.89100
H1227       H  0.60664558  0.05901859  0.39355436     0.35000
H1228       H  0.58050177  0.08212073  0.41233298     0.40100
H1229       H  0.58662917  0.16835458  0.59665352     0.39700
H1230       H  0.61309444  0.14804420  0.57356952     0.34600
C1231       C  0.92628471  0.10859540  0.62899526    -0.27100
C1232       C  0.93026423  0.08965763  0.66123021    -0.15200
C1233       C  0.91335051  0.09337808  0.36057201     0.35400
C1234       C  0.89076575  0.11481395  0.36131381    -0.26600
C1235       C  0.88492926  0.13261038  0.32813701    -0.15800
C1236       C  0.90384014  0.13013179  0.62929225     0.36500
N1237       N  0.90102423  0.14953529  0.59605548    -0.90100
H1238       H  0.94076114  0.10666932  0.60345868     0.17600
H1239       H  0.87745965  0.11713527  0.38786305     0.17600
N1240       N  0.91856553  0.07528826  0.39454585    -0.89100
H1241       H  0.89737933  0.13658419  0.57100292     0.35000
H1242       H  0.92113594  0.16074852  0.59218790     0.40100
H1243       H  0.92332308  0.08924549  0.41826007     0.39700
H1244       H  0.89897143  0.06386489  0.40115281     0.34600
C1245       C  0.60737170  0.43801318  0.36118039    -0.27100
C1246       C  0.58978672  0.44094010  0.65971831    -0.15200
C1247       C  0.59689438  0.42342543  0.62663052     0.35400
C1248       C  0.61994310  0.40275872  0.62899249    -0.26600
C1249       C  0.63644304  0.39869687  0.33040585    -0.15800
C1250       C  0.63082580  0.41755908  0.36296542     0.36500
N1251       N  0.64925868  0.41646448  0.39738993    -0.90100
H1252       H  0.60304420  0.45250244  0.38603381     0.17600
H1253       H  0.62488265  0.38937431  0.60326866     0.17600
N1254       N  0.58136848  0.42660663  0.59012536    -0.89100
H1255       H  0.64173066  0.43139145  0.41878978     0.35000
H1256       H  0.67046023  0.42357064  0.38897183     0.40100
H1257       H  0.58343940  0.44857929  0.58070716     0.39700
H1258       H  0.55889587  0.42220144  0.59517307     0.34600
C1259       C  0.90907022  0.39665093  0.62674192    -0.27100
C1260       C  0.89446938  0.38863458  0.32779072    -0.15200
C1261       C  0.89653262  0.40944321  0.35875498     0.35400
C1262       C  0.91707951  0.43274734  0.35610327    -0.26600
C1263       C  0.93629659  0.43619885  0.65871541    -0.15800
C1264       C  0.93019374  0.41932516  0.62481563     0.36500
N1265       N  0.94498502  0.42500668  0.58803725    -0.90100
H1266       H  0.90496061  0.38379548  0.60037747     0.17600
H1267       H  0.91860094  0.44849189  0.38012013     0.17600
N1268       N  0.87742880  0.40749139  0.39259319    -0.89100
H1269       H  0.96781587  0.42255950  0.59220510     0.35000
H1270       H  0.94082043  0.44696458  0.57993137     0.40100
H1271       H  0.86530006  0.42718358  0.39460354     0.39700
H1272       H  0.89070390  0.40580570  0.41767500     0.34600
C1273       C  0.87117778  0.36601663  0.66241844     0.79400
N1274       N  0.86352078  0.35238555  0.96226741    -0.78900
C1275       C  0.84255707  0.33084517  0.96152382     0.81800
N1276       N  0.83193987  0.31934091  0.99579428    -0.78800
C1277       C  0.84062264  0.33223179  0.69710453     0.81900
N1278       N  0.86075576  0.35459826  0.69701402    -0.80600
C1279       C  0.66114477  0.37721822  0.66445542     0.79400
N1280       N  0.67350821  0.36713884  0.96461574    -0.78900
C1281       C  0.69577377  0.34692881  0.96436810     0.81800
N1282       N  0.70600219  0.33580195  0.99882790    -0.78800
C1283       C  0.69440807  0.34667901  0.69948652     0.81900
N1284       N  0.67170325  0.36644367  0.69915702    -0.80600
C1285       C  0.86013682  0.15483618  0.66369668     0.79400
N1286       N  0.84982332  0.16653489  0.96227569    -0.78900
C1287       C  0.82675862  0.18584667  0.96320257     0.81800
N1288       N  0.81459544  0.19393539  0.99829682    -0.78800
C1289       C  0.82596745  0.18401958  0.69974137     0.81900
N1290       N  0.84855764  0.16405828  0.69882498    -0.80600
N1291       N  0.51242278  0.47024362  0.99410626    -0.37400
N1292       N  0.96432953  0.01340448  0.99406675    -0.58000
N1293       N  0.51024708  0.05944801  0.99206412    -0.37400
N1294       N  0.55734426  0.01569898  0.99393531    -0.58000
C1295       C  0.98950135  0.45145855  0.00001176     0.26200
C1296       C  0.53692563  0.45368280  0.00070036     0.26200
C1297       C  0.98410701  0.07651271  0.00011457     0.26200
C1298       C  0.53376139  0.07689678  0.00058230     0.26200
C1299       C  0.94897435  0.48830615  0.98905519     0.34800
C1300       C  0.94630245  0.03697642  0.98866396     0.35200
C1301       C  0.57508857  0.49339305  0.99364438     0.34800
C1302       C  0.57387599  0.04026233  0.98786171     0.34800
C1303       C  0.99951938  0.42363743  0.01117447    -0.22700
C1304       C  0.52854465  0.42506294  0.01062384    -0.22700
C1305       C  0.99200439  0.10459669  0.01290090    -0.22700
C1306       C  0.52376955  0.10411743  0.01411879    -0.22700
C1307       C  0.91885019  0.99705407  0.97868478    -0.23800
C1308       C  0.91797832  0.02745012  0.97923869    -0.23800
C1309       C  0.60340379  0.00218112  0.97599082    -0.23800
C1310       C  0.60250304  0.03256351  0.97679829    -0.23800
C1311       C  0.95931054  0.45898445  0.99448848    -0.19100
C1312       C  0.56665838  0.46329927  0.99629511    -0.19100
C1313       C  0.56395017  0.06945315  0.99471063    -0.19100
C1314       C  0.95455248  0.06694309  0.99416604    -0.19100
H1315       H  0.98625186  0.40435920  0.01835029     0.13800
H1316       H  0.54290969  0.40650277  0.01716591     0.13800
H1317       H  0.97732582  0.12261482  0.02093217     0.13800
H1318       H  0.53705804  0.12290858  0.02297172     0.13800
H1319       H  0.90180221  0.48103132  0.97353687     0.12100
H1320       H  0.89863849  0.04098008  0.97357775     0.12100
H1321       H  0.62308526  0.48997231  0.97923792     0.12100
H1322       H  0.62088790  0.04729118  0.97049553     0.12100
H1323       H  0.51199844  0.49181008  0.98383244     0.25300
H1324       H  0.51097885  0.03868033  0.97914318     0.25300
C1325       C  0.64848617  0.16759306  0.66591873     0.79400
N1326       N  0.65964356  0.17801581  0.96414834    -0.78900
C1327       C  0.67946711  0.20058919  0.96520675     0.81800
N1328       N  0.68901991  0.21099579  0.00040656    -0.78800
C1329       C  0.67865847  0.20035613  0.70209572     0.81900
N1330       N  0.65852763  0.17795665  0.70109621    -0.80600
N1331       N  0.80190249  0.31775129  0.87530738    -0.06900
N1332       N  0.80743443  0.33500299  0.90581249    -0.59100
N1333       N  0.81890366  0.29455355  0.78365560    -0.06600
N1334       N  0.83653814  0.29596994  0.75237039    -0.61200
N1335       N  0.80084529  0.31747752  0.78443058    -0.06200
N1336       N  0.80588228  0.33502463  0.75393065    -0.59000
N1337       N  0.82000282  0.29487759  0.87502400    -0.05900
N1338       N  0.83812285  0.29596407  0.90543352    -0.61500
C1339       C  0.83015138  0.32118867  0.92404702     0.95200
C1340       C  0.82820663  0.32138510  0.73437637     0.95000
N1341       N  0.78870681  0.20689330  0.78607977    -0.07100
N1342       N  0.79021514  0.18840695  0.75589466    -0.59600
N1343       N  0.81216987  0.22592438  0.87641268    -0.05200
N1344       N  0.82972510  0.22088936  0.90674912    -0.60900
N1345       N  0.78913963  0.20800734  0.87753578    -0.07200
N1346       N  0.79038336  0.19058987  0.90883097    -0.59900
N1347       N  0.81151513  0.22509820  0.78552026    -0.04900
N1348       N  0.82908473  0.21931820  0.75521180    -0.61000
Mn1349     Mn  0.81671158  0.26000384  0.83003278     1.18400
C1350       C  0.81566716  0.19630705  0.73727210     0.97300
C1351       C  0.81583347  0.19882119  0.92654677     0.98000
N1352       N  0.73170296  0.32506734  0.78583699    -0.07200
N1353       N  0.73032015  0.34267978  0.75471538    -0.63500
N1354       N  0.70972755  0.30714564  0.87761749    -0.06000
N1355       N  0.69254559  0.31220472  0.90850502    -0.64200
N1356       N  0.73259251  0.32527102  0.87737790    -0.06700
N1357       N  0.73151498  0.34302951  0.90833007    -0.63700
N1358       N  0.70879620  0.30698275  0.78671174    -0.05600
N1359       N  0.69121467  0.31208839  0.75642154    -0.64400
Mn1360     Mn  0.76686450  0.32248793  0.83077450     1.10700
C1361       C  0.70488339  0.33442985  0.73690577     0.98500
C1362       C  0.70631990  0.33464885  0.92713625     0.98600
N1363       N  0.72009605  0.21542221  0.87867573    -0.06700
N1364       N  0.71492156  0.19800307  0.90925213    -0.62100
N1365       N  0.70116503  0.23761931  0.78774388    -0.06000
N1366       N  0.68293481  0.23607305  0.75746094    -0.58800
N1367       N  0.71918382  0.21466963  0.78798180    -0.07300
N1368       N  0.71345360  0.19690563  0.75809761    -0.61600
N1369       N  0.70198785  0.23829015  0.87912132    -0.06300
N1370       N  0.68419813  0.23701556  0.91025847    -0.58800
Mn1371     Mn  0.75418101  0.21019886  0.83251524     1.20200
Mn1372     Mn  0.70435580  0.27265190  0.83275634     1.10100
Cl1373     Cl  0.76053006  0.26633392  0.83142652    -0.86800
C1374       C  0.69253942  0.21174337  0.92855346     0.95600
C1375       C  0.69069413  0.21042805  0.73962747     0.95300
C1376       C  0.62373297  0.12350180  0.69670213    -0.27100
C1377       C  0.62637089  0.14311805  0.66455565    -0.15200
C1378       C  0.60790014  0.13728857  0.96435065     0.35400
C1379       C  0.58793149  0.11347061  0.96406740    -0.26600
C1380       C  0.58623941  0.09370530  0.99585408    -0.15800
C1381       C  0.60369193  0.09977771  0.69598515     0.36500
N1382       N  0.60112971  0.08122736  0.73015869    -0.90100
H1383       H  0.63739587  0.12648529  0.72256957     0.17600
H1384       H  0.57333003  0.11060102  0.93908249     0.17600
N1385       N  0.60794016  0.15780669  0.93208214    -0.89100
H1386       H  0.60633515  0.05949705  0.72214242     0.35000
H1387       H  0.57908805  0.08176063  0.73995981     0.40100
H1388       H  0.58664221  0.16680625  0.92975204     0.39700
H1389       H  0.61251454  0.14605324  0.90618924     0.34600
C1390       C  0.92823719  0.10981757  0.96362530    -0.27100
C1391       C  0.93070459  0.08970996  0.99496014    -0.15200
C1392       C  0.91181900  0.09251894  0.69458982     0.35400
C1393       C  0.88925319  0.11396812  0.69502888    -0.26600
C1394       C  0.88475439  0.13282058  0.66248990    -0.15800
C1395       C  0.90590531  0.13152504  0.96355422     0.36500
N1396       N  0.90460389  0.15222849  0.93155197    -0.90100
H1397       H  0.94379031  0.10866999  0.93914154     0.17600
H1398       H  0.87504842  0.11561421  0.72084374     0.17600
N1399       N  0.91614011  0.07371110  0.72811521    -0.89100
H1400       H  0.90205241  0.14029498  0.90537907     0.35000
H1401       H  0.92489118  0.16342299  0.93003228     0.40100
H1402       H  0.92021835  0.08715856  0.75256971     0.39700
H1403       H  0.89641659  0.06212436  0.73334848     0.34600
C1404       C  0.60603576  0.43762753  0.69447869    -0.27100
C1405       C  0.59058761  0.44060077  0.99639360    -0.15200
C1406       C  0.59556340  0.42123757  0.96422077     0.35400
C1407       C  0.61883232  0.40074925  0.96610847    -0.26600
C1408       C  0.63654279  0.39928597  0.66378457    -0.15800
C1409       C  0.62960226  0.41731496  0.69682118     0.36500
N1410       N  0.64686917  0.41563683  0.73225691    -0.90100
H1411       H  0.60060726  0.45143911  0.71963942     0.17600
H1412       H  0.62236259  0.38602360  0.94129295     0.17600
N1413       N  0.57800080  0.42201684  0.92895884    -0.89100
H1414       H  0.63840158  0.42992896  0.75381554     0.35000
H1415       H  0.66819736  0.42327295  0.72540372     0.40100
H1416       H  0.56223204  0.43891910  0.92963596     0.39700
H1417       H  0.56638675  0.40201131  0.92733477     0.34600
C1418       C  0.91426764  0.39153685  0.96386053    -0.27100
C1419       C  0.89348349  0.39042441  0.66198680    -0.15200
C1420       C  0.89940984  0.40786184  0.69574626     0.35400
C1421       C  0.92075571  0.43044804  0.69375815    -0.26600
C1422       C  0.93731929  0.43441730  0.99427303    -0.15800
C1423       C  0.93449328  0.41507052  0.96169959     0.36500
N1424       N  0.95118370  0.41893039  0.92572956    -0.90100
H1425       H  0.91235705  0.37692880  0.93866570     0.17600
H1426       H  0.92525056  0.44361312  0.71975794     0.17600
N1427       N  0.88356558  0.40320783  0.73198842    -0.89100
H1428       H  0.96550150  0.40082270  0.92290078     0.35000
H1429       H  0.96438192  0.43790148  0.92630459     0.40100
H1430       H  0.87273519  0.42292930  0.73942910     0.39700
H1431       H  0.89900207  0.39854168  0.75403328     0.34600
C1432       C  0.87206714  0.86325133  0.99456287     0.79400
N1433       N  0.86164349  0.85258561  0.29278184    -0.78900
C1434       C  0.84204430  0.82975475  0.29295420     0.81800
N1435       N  0.83242220  0.81817627  0.32769761    -0.78800
C1436       C  0.84213028  0.82890847  0.02926741     0.81900
N1437       N  0.86153041  0.85191769  0.02915187    -0.80600
C1438       C  0.66333849  0.87750886  0.99587996     0.79400
N1439       N  0.67416700  0.86738065  0.29598374    -0.78900
C1440       C  0.69650991  0.84727068  0.29588940     0.81800
N1441       N  0.70744696  0.83709101  0.33054456    -0.78800
C1442       C  0.69573534  0.84596142  0.03051970     0.81900
N1443       N  0.67356940  0.86623635  0.03039684    -0.80600
C1444       C  0.85973540  0.65314998  0.99688031     0.79400
N1445       N  0.84739559  0.66396888  0.29390750    -0.78900
C1446       C  0.82454549  0.68352997  0.29481028     0.81800
N1447       N  0.81365070  0.69309948  0.32993929    -0.78800
C1448       C  0.82447122  0.68162523  0.03204821     0.81900
N1449       N  0.84769675  0.66237562  0.03172554    -0.80600
N1450       N  0.51227796  0.96960533  0.32109709    -0.37400
N1451       N  0.96506455  0.51396646  0.32426734    -0.58000
N1452       N  0.50980067  0.56144651  0.33080916    -0.37400
N1453       N  0.55661435  0.51680835  0.33204741    -0.58000
C1454       C  0.98825131  0.95161840  0.32863707     0.26200
C1455       C  0.53680104  0.95338023  0.32890422     0.26200
C1456       C  0.98488850  0.57693962  0.33147753     0.26200
C1457       C  0.53348687  0.57856438  0.33958653     0.26200
C1458       C  0.94805631  0.98902696  0.31869749     0.34800
C1459       C  0.94716434  0.53757872  0.31848009     0.35200
C1460       C  0.57464077  0.99307378  0.32035214     0.34800
C1461       C  0.57356862  0.54133917  0.32790189     0.34800
C1462       C  0.99787472  0.92374165  0.34018843    -0.22700
C1463       C  0.52848506  0.92510862  0.34057695    -0.22700
C1464       C  0.99268082  0.60492167  0.34469368    -0.22700
C1465       C  0.52372263  0.60611927  0.35228062    -0.22700
C1466       C  0.91970932  0.49769829  0.30808710    -0.23800
C1467       C  0.91892104  0.52810782  0.30849081    -0.23800
C1468       C  0.60304095  0.50311924  0.31617313    -0.23800
C1469       C  0.60242852  0.53348080  0.31814117    -0.23800
C1470       C  0.95815656  0.95954005  0.32315055    -0.19100
C1471       C  0.56648413  0.96299839  0.32410738    -0.19100
C1472       C  0.56368558  0.57067336  0.33444457    -0.19100
C1473       C  0.95530670  0.56748002  0.32480087    -0.19100
H1474       H  0.98434828  0.90464152  0.34733736     0.13800
H1475       H  0.54290784  0.90688425  0.34841277     0.13800
H1476       H  0.97793184  0.62299368  0.35225445     0.13800
H1477       H  0.53717376  0.62480177  0.36111428     0.13800
H1478       H  0.90035974  0.98242935  0.30556949     0.12100
H1479       H  0.89964272  0.54167651  0.30260782     0.12100
H1480       H  0.62203197  0.98986059  0.30279084     0.12100
H1481       H  0.62113871  0.54808694  0.31322353     0.12100
H1482       H  0.51188286  0.99090981  0.30958660     0.25300
H1483       H  0.51044812  0.54055142  0.31840027     0.25300
C1484       C  0.64872655  0.66629233  0.99829053     0.79400
N1485       N  0.65761580  0.67933992  0.29769016    -0.78900
C1486       C  0.67790087  0.70152549  0.29714474     0.81800
N1487       N  0.68862791  0.71228978  0.33155030    -0.78800
C1488       C  0.67815026  0.70071697  0.03250682     0.81900
N1489       N  0.65839668  0.67808803  0.03273663    -0.80600
N1490       N  0.80145277  0.81595848  0.20695318    -0.06900
N1491       N  0.80713660  0.83346433  0.23711498    -0.59100
N1492       N  0.81879712  0.79211648  0.11579247    -0.06600
N1493       N  0.83674423  0.79301003  0.08478783    -0.61200
N1494       N  0.80116981  0.81536785  0.11609371    -0.06200
N1495       N  0.80689059  0.83268354  0.08554686    -0.59000
N1496       N  0.81903461  0.79269353  0.20734582    -0.05900
N1497       N  0.83691871  0.79373107  0.23803428    -0.61500
C1498       C  0.82933512  0.81936422  0.25600460     0.95200
C1499       C  0.82912899  0.81850172  0.06645491     0.95000
N1500       N  0.78685641  0.70534391  0.11777842    -0.07100
N1501       N  0.78815496  0.68693376  0.08749005    -0.59600
N1502       N  0.81015673  0.72383612  0.20833713    -0.05200
N1503       N  0.82769845  0.71843094  0.23852026    -0.60900
N1504       N  0.78691348  0.70619796  0.20930374    -0.07200
N1505       N  0.78802228  0.68855375  0.24041465    -0.59900
N1506       N  0.81006451  0.72302883  0.11761890    -0.04900
N1507       N  0.82775060  0.71691242  0.08754895    -0.61000
Mn1508     Mn  0.81554496  0.75780214  0.16222885     1.18400
C1509       C  0.81392648  0.69429737  0.06926015     0.97300
C1510       C  0.81363617  0.69640497  0.25810295     0.98000
N1511       N  0.73210984  0.82397972  0.11697889    -0.07200
N1512       N  0.73136698  0.84131125  0.08558977    -0.63500
N1513       N  0.70922388  0.80696712  0.20889984    -0.06000
N1514       N  0.69228538  0.81237089  0.23997411    -0.64200
N1515       N  0.73245351  0.82464020  0.20851603    -0.06700
N1516       N  0.73189381  0.84235143  0.23953823    -0.63700
N1517       N  0.70876015  0.80648449  0.11793147    -0.05600
N1518       N  0.69149021  0.81168900  0.08739414    -0.64400
Mn1519     Mn  0.76689159  0.82108591  0.16210055     1.10700
C1520       C  0.70587490  0.83345910  0.06770644     0.98500
C1521       C  0.70666992  0.83446492  0.25863787     0.98600
N1522       N  0.71788405  0.71487026  0.20970854    -0.06700
N1523       N  0.71248047  0.69764021  0.24040123    -0.62100
N1524       N  0.70001311  0.73764984  0.11863416    -0.06000
N1525       N  0.68238955  0.73666901  0.08766313    -0.58800
N1526       N  0.71778806  0.71451562  0.11900145    -0.07300
N1527       N  0.71254069  0.69719325  0.08856408    -0.61600
N1528       N  0.70016330  0.73804270  0.21009101    -0.06300
N1529       N  0.68242361  0.73716537  0.24129653    -0.58800
Mn1530     Mn  0.75219690  0.70916790  0.16394061     1.20200
Mn1531     Mn  0.70338957  0.77245206  0.16392096     1.10100
Cl1532     Cl  0.75949761  0.76512556  0.16301931    -0.86800
C1533       C  0.69031736  0.71177140  0.25964315     0.95600
C1534       C  0.69043370  0.71123924  0.06951305     0.95300
C1535       C  0.62435967  0.62388199  0.03278559    -0.27100
C1536       C  0.62690544  0.64173955  0.99884583    -0.15200
C1537       C  0.60547691  0.63921356  0.30185445     0.35400
C1538       C  0.58615175  0.61490538  0.30257198    -0.26600
C1539       C  0.58591094  0.59504074  0.33435407    -0.15800
C1540       C  0.60402641  0.60053745  0.03457511     0.36500
N1541       N  0.60188862  0.58343121  0.07011409    -0.90100
H1542       H  0.63831418  0.62795867  0.05810935     0.17600
H1543       H  0.57074669  0.61182979  0.27849980     0.17600
N1544       N  0.60371165  0.66003851  0.27003633    -0.89100
H1545       H  0.60666732  0.56134116  0.06348309     0.35000
H1546       H  0.58004396  0.58463446  0.08057127     0.40100
H1547       H  0.58211398  0.66848703  0.26937498     0.39700
H1548       H  0.60754097  0.64865888  0.24364517     0.34600
C1549       C  0.92757972  0.60971978  0.29470471    -0.27100
C1550       C  0.93114700  0.59003717  0.32628909    -0.15200
C1551       C  0.91101436  0.59019544  0.02679028     0.35400
C1552       C  0.88834956  0.61158390  0.02749270    -0.26600
C1553       C  0.88490170  0.63177049  0.99618992    -0.15800
C1554       C  0.90437948  0.63052470  0.29460951     0.36500
N1555       N  0.90167669  0.65044518  0.26191014    -0.90100
H1556       H  0.94277884  0.60876068  0.26982534     0.17600
H1557       H  0.87309804  0.61200163  0.05233303     0.17600
N1558       N  0.91403665  0.56982197  0.05893491    -0.89100
H1559       H  0.89912527  0.63784448  0.23629899     0.35000
H1560       H  0.92145620  0.66241051  0.25930314     0.40100
H1561       H  0.91708795  0.58206236  0.08474820     0.39700
H1562       H  0.89416592  0.55803801  0.06177579     0.34600
C1563       C  0.60675865  0.93591726  0.02786393    -0.27100
C1564       C  0.59061582  0.94058703  0.32575530    -0.15200
C1565       C  0.59700435  0.92197096  0.29348387     0.35400
C1566       C  0.62047909  0.90181890  0.29586544    -0.26600
C1567       C  0.63883795  0.89962374  0.99564712    -0.15800
C1568       C  0.63054619  0.91588373  0.02982497     0.36500
N1569       N  0.64637895  0.91245055  0.06623105    -0.90100
H1570       H  0.60037763  0.94854188  0.05374223     0.17600
H1571       H  0.62485879  0.88761736  0.27075312     0.17600
N1572       N  0.58031822  0.92347350  0.25771644    -0.89100
H1573       H  0.63677538  0.92532344  0.08853786     0.35000
H1574       H  0.66779147  0.92076670  0.06174471     0.40100
H1575       H  0.58157081  0.94511280  0.24680112     0.39700
H1576       H  0.55813057  0.91870924  0.26421373     0.34600
C1577       C  0.90816198  0.89633447  0.29111170    -0.27100
C1578       C  0.89355093  0.88839977  0.99412420    -0.15200
C1579       C  0.89839569  0.90642501  0.02758738     0.35400
C1580       C  0.91920651  0.92949339  0.02573965    -0.26600
C1581       C  0.93573895  0.93541305  0.32367901    -0.15800
C1582       C  0.92892536  0.91936223  0.28930190     0.36500
N1583       N  0.94278797  0.92610300  0.25221227    -0.90100
H1584       H  0.90346933  0.88418871  0.26433191     0.17600
H1585       H  0.92293611  0.94299026  0.05166190     0.17600
N1586       N  0.88197523  0.90186692  0.06340146    -0.89100
H1587       H  0.96572854  0.92373526  0.25531627     0.35000
H1588       H  0.93827263  0.94821800  0.24528939     0.40100
H1589       H  0.87053885  0.92141456  0.07000381     0.39700
H1590       H  0.89708088  0.89785940  0.08606988     0.34600
C1591       C  0.87208529  0.86379210  0.32725940     0.79400
N1592       N  0.86287833  0.85230312  0.62734353    -0.78900
C1593       C  0.84303780  0.82974385  0.62711533     0.81800
N1594       N  0.83295148  0.81821529  0.66164029    -0.78800
C1595       C  0.84254341  0.82929121  0.36221890     0.81900
N1596       N  0.86214853  0.85208622  0.36190204    -0.80600
C1597       C  0.66284536  0.87785873  0.33054033     0.79400
N1598       N  0.67528262  0.86650415  0.62926498    -0.78900
C1599       C  0.69762498  0.84637762  0.62967062     0.81800
N1600       N  0.70774000  0.83574278  0.66449930    -0.78800
C1601       C  0.69611133  0.84712697  0.36523107     0.81900
N1602       N  0.67370846  0.86726264  0.36517585    -0.80600
C1603       C  0.85928379  0.65349388  0.32796088     0.79400
N1604       N  0.84979327  0.66442081  0.62748193    -0.78900
C1605       C  0.82674740  0.68374537  0.62823784     0.81800
N1606       N  0.81485817  0.69229270  0.66327987    -0.78800
C1607       C  0.82540156  0.68292085  0.36412297     0.81900
N1608       N  0.84824163  0.66326328  0.36310822    -0.80600
N1609       N  0.51410659  0.96907864  0.65426074    -0.37400
N1610       N  0.96617524  0.51371296  0.65932864    -0.58000
N1611       N  0.50908739  0.56138885  0.66076539    -0.37400
N1612       N  0.55613600  0.51686037  0.66212882    -0.58000
C1613       C  0.98887390  0.95212427  0.66094516     0.26200
C1614       C  0.53884310  0.95348438  0.66298373     0.26200
C1615       C  0.98644081  0.57657568  0.66474050     0.26200
C1616       C  0.53272569  0.57842796  0.67004195     0.26200
C1617       C  0.94807790  0.98910151  0.65335282     0.34800
C1618       C  0.94842175  0.53736002  0.65324928     0.35200
C1619       C  0.57641124  0.99334795  0.65281334     0.34800
C1620       C  0.57291550  0.54146463  0.65777064     0.34800
C1621       C  0.99906143  0.92433951  0.67195954    -0.22700
C1622       C  0.53093539  0.92551224  0.67636028    -0.22700
C1623       C  0.99465407  0.60462532  0.67721305    -0.22700
C1624       C  0.52290203  0.60564200  0.68386088    -0.22700
C1625       C  0.92087419  0.49767335  0.64237581    -0.23800
C1626       C  0.92021106  0.52806163  0.64286305    -0.23800
C1627       C  0.60266334  0.50339617  0.64635307    -0.23800
C1628       C  0.60183736  0.53376138  0.64808156    -0.23800
C1629       C  0.95855816  0.95966794  0.65675383    -0.19100
C1630       C  0.56838803  0.96326097  0.65741456    -0.19100
C1631       C  0.56292230  0.57069783  0.66461200    -0.19100
C1632       C  0.95673882  0.56716648  0.65937233    -0.19100
H1633       H  0.98590741  0.90507282  0.67954368     0.13800
H1634       H  0.54561503  0.90777609  0.68525351     0.13800
H1635       H  0.98015252  0.62277778  0.68527798     0.13800
H1636       H  0.53633214  0.62414806  0.69336756     0.13800
H1637       H  0.90021009  0.98219961  0.64165392     0.12100
H1638       H  0.90106827  0.54173783  0.63665949     0.12100
H1639       H  0.62445607  0.99020577  0.63874897     0.12100
H1640       H  0.62047351  0.54847008  0.64321893     0.12100
H1641       H  0.51342588  0.98991120  0.64139593     0.25300
H1642       H  0.50982967  0.54074435  0.64757635     0.25300
C1643       C  0.64752198  0.66809398  0.33251495     0.79400
N1644       N  0.65908470  0.67825411  0.62970626    -0.78900
C1645       C  0.67927143  0.70055771  0.62994003     0.81800
N1646       N  0.68943151  0.71111876  0.66476069    -0.78800
C1647       C  0.67895084  0.70097241  0.36643188     0.81900
N1648       N  0.65864213  0.67877559  0.36687848    -0.80600
N1649       N  0.80321176  0.81623641  0.54051555    -0.06900
N1650       N  0.80853456  0.83356724  0.57095887    -0.59100
N1651       N  0.82048648  0.79266059  0.44930255    -0.06600
N1652       N  0.83811737  0.79356043  0.41799088    -0.61200
N1653       N  0.80263599  0.81574800  0.44970747    -0.06200
N1654       N  0.80784651  0.83292908  0.41890256    -0.59000
N1655       N  0.82100221  0.79312531  0.54078606    -0.05900
N1656       N  0.83870196  0.79411987  0.57166438    -0.61500
C1657       C  0.83073562  0.81953535  0.58988914     0.95200
C1658       C  0.83001857  0.81885775  0.39957694     0.95000
N1659       N  0.78898647  0.70584827  0.45106452    -0.07100
N1660       N  0.78992151  0.68779513  0.42040482    -0.59600
N1661       N  0.81256325  0.72415905  0.54167075    -0.05200
N1662       N  0.83010995  0.71875154  0.57188566    -0.60900
N1663       N  0.78930319  0.70653233  0.54265534    -0.07200
N1664       N  0.79039087  0.68893809  0.57380269    -0.59900
N1665       N  0.81215765  0.72358782  0.45074526    -0.04900
N1666       N  0.82944523  0.71786809  0.42010009    -0.61000
Mn1667     Mn  0.81766373  0.75826294  0.49559151     1.18400
C1668       C  0.81539708  0.69542203  0.40169471     0.97300
C1669       C  0.81599532  0.69675360  0.59150744     0.98000
N1670       N  0.73353814  0.82447757  0.45092741    -0.07200
N1671       N  0.73226392  0.84232725  0.42004134    -0.63500
N1672       N  0.71119424  0.80657113  0.54274684    -0.06000
N1673       N  0.69418858  0.81160336  0.57381797    -0.64200
N1674       N  0.73425958  0.82444642  0.54255048    -0.06700
N1675       N  0.73351075  0.84197631  0.57375971    -0.63700
N1676       N  0.71035678  0.80676538  0.45183333    -0.05600
N1677       N  0.69269391  0.81233257  0.42179065    -0.64400
Mn1678     Mn  0.76854520  0.82133474  0.49588132     1.10700
C1679       C  0.70658335  0.83460342  0.40243672     0.98500
C1680       C  0.70832732  0.83370318  0.59270026     0.98600
N1681       N  0.72014163  0.71476444  0.54331057    -0.06700
N1682       N  0.71457274  0.69733295  0.57377300    -0.62100
N1683       N  0.70208000  0.73773516  0.45218923    -0.06000
N1684       N  0.68416607  0.73676930  0.42153610    -0.58800
N1685       N  0.71979884  0.71455480  0.45236386    -0.07300
N1686       N  0.71417499  0.69719355  0.42201752    -0.61600
N1687       N  0.70229056  0.73783122  0.54366930    -0.06300
N1688       N  0.68429031  0.73667715  0.57461018    -0.58800
Mn1689     Mn  0.75444101  0.70934686  0.49735842     1.20200
Mn1690     Mn  0.70541970  0.77237202  0.49759848     1.10100
Cl1691     Cl  0.76152450  0.76532316  0.49656984    -0.86800
C1692       C  0.69216402  0.71122858  0.59285441     0.95600
C1693       C  0.69189235  0.71130044  0.40327829     0.95300
C1694       C  0.62511126  0.62367425  0.36514821    -0.27100
C1695       C  0.62568853  0.64345569  0.33302251    -0.15200
C1696       C  0.60736100  0.63744520  0.63162374     0.35400
C1697       C  0.58713158  0.61386521  0.63246356    -0.26600
C1698       C  0.58519470  0.59496786  0.66513569    -0.15800
C1699       C  0.60535936  0.59973768  0.36623022     0.36500
N1700       N  0.60497217  0.58103346  0.40040674    -0.90100
H1701       H  0.64017854  0.62670648  0.38958709     0.17600
H1702       H  0.57261020  0.61041052  0.60752665     0.17600
N1703       N  0.60780342  0.65690020  0.59821743    -0.89100
H1704       H  0.61009838  0.55941822  0.39181740     0.35000
H1705       H  0.58351952  0.58117971  0.41233851     0.40100
H1706       H  0.58663151  0.66606817  0.59518160     0.39700
H1707       H  0.61234581  0.64425959  0.57306795     0.34600
C1708       C  0.92868475  0.60852407  0.62835144    -0.27100
C1709       C  0.93277163  0.58978930  0.66076420    -0.15200
C1710       C  0.91137385  0.59142318  0.35854123     0.35400
C1711       C  0.88831807  0.61237638  0.35874959    -0.26600
C1712       C  0.88433150  0.63195469  0.32688773    -0.15800
C1713       C  0.90552243  0.62930723  0.62788675     0.36500
N1714       N  0.90224064  0.64810722  0.59413344    -0.90100
H1715       H  0.94342988  0.60679193  0.60306548     0.17600
H1716       H  0.87321051  0.61296730  0.38374027     0.17600
N1717       N  0.91465762  0.57143597  0.39106310    -0.89100
H1718       H  0.89920306  0.63466032  0.56939456     0.35000
H1719       H  0.92198116  0.65993928  0.59016700     0.40100
H1720       H  0.91739386  0.58399015  0.41667365     0.39700
H1721       H  0.89498967  0.55932679  0.39399998     0.34600
C1722       C  0.60793725  0.93867291  0.35983260    -0.27100
C1723       C  0.59245862  0.94079801  0.65871657    -0.15200
C1724       C  0.59849270  0.92216965  0.62630954     0.35400
C1725       C  0.62160781  0.90157625  0.62854690    -0.26600
C1726       C  0.63808886  0.89972257  0.32993352    -0.15800
C1727       C  0.63176632  0.91863639  0.36226750     0.36500
N1728       N  0.64980416  0.91800512  0.39707561    -0.90100
H1729       H  0.60305410  0.95326696  0.38439449     0.17600
H1730       H  0.62580527  0.88738708  0.60336298     0.17600
N1731       N  0.58164664  0.92395810  0.59069256    -0.89100
H1732       H  0.64175402  0.93289543  0.41819096     0.35000
H1733       H  0.67097021  0.92545139  0.38904398     0.40100
H1734       H  0.58314607  0.94559655  0.57982590     0.39700
H1735       H  0.55942301  0.91951489  0.59740375     0.34600
C1736       C  0.91190818  0.89322177  0.62710442    -0.27100
C1737       C  0.89380873  0.88875588  0.32680180    -0.15200
C1738       C  0.90056819  0.90526204  0.36113789     0.35400
C1739       C  0.92146011  0.92827546  0.35920375    -0.26600
C1740       C  0.93642579  0.93519234  0.65763876    -0.15800
C1741       C  0.93239449  0.91645779  0.62485440     0.36500
N1742       N  0.94849571  0.92087273  0.58873133    -0.90100
H1743       H  0.90935836  0.87899972  0.60163208     0.17600
H1744       H  0.92660293  0.94067792  0.38564589     0.17600
N1745       N  0.88607676  0.89919494  0.39800215    -0.89100
H1746       H  0.97117003  0.91898973  0.59443837     0.35000
H1747       H  0.94427247  0.94235878  0.57867308     0.40100
H1748       H  0.87520534  0.91846813  0.40722041     0.39700
H1749       H  0.90233491  0.89408397  0.41879348     0.34600
C1750       C  0.87305880  0.86339282  0.66197868     0.79400
N1751       N  0.86245823  0.85149613  0.95999652    -0.78900
C1752       C  0.84310296  0.82848414  0.95994807     0.81800
N1753       N  0.83285125  0.81726899  0.99460337    -0.78800
C1754       C  0.84289179  0.82908462  0.69640120     0.81900
N1755       N  0.86273617  0.85175828  0.69653751    -0.80600
C1756       C  0.66322109  0.87655173  0.66360646     0.79400
N1757       N  0.67503275  0.86743208  0.96129633    -0.78900
C1758       C  0.69714275  0.84702913  0.96131842     0.81800
N1759       N  0.70749064  0.83629168  0.99596279    -0.78800
C1760       C  0.69557376  0.84530596  0.69888701     0.81900
N1761       N  0.67324106  0.86546335  0.69839887    -0.80600
C1762       C  0.86096473  0.65322741  0.66156306     0.79400
N1763       N  0.84853065  0.66379740  0.96253112    -0.78900
C1764       C  0.82541679  0.68300469  0.96271235     0.81800
N1765       N  0.81343548  0.69197979  0.99750821    -0.78800
C1766       C  0.82589840  0.68141798  0.69751106     0.81900
N1767       N  0.84900851  0.66209133  0.69661432    -0.80600
N1768       N  0.51295945  0.96836370  0.98957893    -0.37400
N1769       N  0.96532805  0.51305624  0.99453512    -0.58000
N1770       N  0.50982054  0.56151550  0.99811025    -0.37400
N1771       N  0.55693928  0.51666458  0.00059440    -0.58000
C1772       C  0.98778940  0.95134493  0.99706138     0.26200
C1773       C  0.53770715  0.95257373  0.99742664     0.26200
C1774       C  0.98457325  0.57633949  0.99786633     0.26200
C1775       C  0.53346988  0.57869075  0.00663810     0.26200
C1776       C  0.94769642  0.98897387  0.98766949     0.34800
C1777       C  0.94710509  0.53630407  0.98795818     0.35200
C1778       C  0.57525423  0.99240122  0.98644541     0.34800
C1779       C  0.57374199  0.54125563  0.99648786     0.34800
C1780       C  0.99739615  0.92313951  0.00712568    -0.22700
C1781       C  0.52983273  0.92429456  0.00965132    -0.22700
C1782       C  0.99233083  0.60454006  0.01027213    -0.22700
C1783       C  0.52373731  0.60653180  0.01823430    -0.22700
C1784       C  0.92012609  0.49586741  0.97931092    -0.23800
C1785       C  0.91894884  0.52627423  0.97856400    -0.23800
C1786       C  0.60364180  0.50323944  0.98565719    -0.23800
C1787       C  0.60278805  0.53356380  0.98745722    -0.23800
C1788       C  0.95772068  0.95941473  0.99156844    -0.19100
C1789       C  0.56718544  0.96245084  0.99169696    -0.19100
C1790       C  0.56362919  0.57056183  0.00224041    -0.19100
C1791       C  0.95498605  0.56642237  0.99285136    -0.19100
H1792       H  0.98386438  0.90378257  0.01286812     0.13800
H1793       H  0.54453700  0.90630028  0.01750374     0.13800
H1794       H  0.97756521  0.62246571  0.01839071     0.13800
H1795       H  0.53720712  0.62532696  0.02659289     0.13800
H1796       H  0.90033426  0.98256136  0.97247924     0.12100
H1797       H  0.89951852  0.53948794  0.97217606     0.12100
H1798       H  0.62264696  0.98881245  0.96889332     0.12100
H1799       H  0.62145115  0.54826679  0.98274409     0.12100
H1800       H  0.51230272  0.98944414  0.97749532     0.25300
H1801       H  0.51058496  0.54038364  0.98647330     0.25300
C1802       C  0.64857132  0.66665482  0.66414080     0.79400
N1803       N  0.65980290  0.67680440  0.96360590    -0.78900
C1804       C  0.67959270  0.69941396  0.96330509     0.81800
N1805       N  0.68881067  0.71136006  0.99778076    -0.78800
C1806       C  0.67935619  0.69946368  0.69924575     0.81900
N1807       N  0.65919334  0.67714175  0.69889702    -0.80600
N1808       N  0.80294622  0.81455269  0.87364776    -0.06900
N1809       N  0.80842420  0.83198629  0.90393740    -0.59100
N1810       N  0.82013232  0.79113824  0.78235797    -0.06600
N1811       N  0.83811201  0.79258103  0.75140490    -0.61200
N1812       N  0.80218555  0.81415160  0.78290106    -0.06200
N1813       N  0.80766109  0.83179504  0.75264223    -0.59000
N1814       N  0.82076581  0.79146065  0.87392024    -0.05900
N1815       N  0.83863468  0.79258158  0.90464284    -0.61500
C1816       C  0.83074575  0.81806722  0.92278333     0.95200
C1817       C  0.83015023  0.81815050  0.73345768     0.95000
N1818       N  0.78884824  0.70399110  0.78422699    -0.07100
N1819       N  0.79001920  0.68587904  0.75360528    -0.59600
N1820       N  0.81215592  0.72246872  0.87503969    -0.05200
N1821       N  0.82932292  0.71743469  0.90575955    -0.60900
N1822       N  0.78891763  0.70480935  0.87592684    -0.07200
N1823       N  0.78962434  0.68759827  0.90748276    -0.59900
N1824       N  0.81193759  0.72183577  0.78403251    -0.04900
N1825       N  0.82939426  0.71614240  0.75357977    -0.61000
Mn1826     Mn  0.81735231  0.75657546  0.82877146     1.18400
C1827       C  0.81557143  0.69361750  0.73510271     0.97300
C1828       C  0.81498442  0.69566731  0.92558108     0.98000
N1829       N  0.73302756  0.82268024  0.78429162    -0.07200
N1830       N  0.73160906  0.84060314  0.75354097    -0.63500
N1831       N  0.71079006  0.80536287  0.87591041    -0.06000
N1832       N  0.69341385  0.81139502  0.90632651    -0.64200
N1833       N  0.73390305  0.82317428  0.87536385    -0.06700
N1834       N  0.73284899  0.84162561  0.90556779    -0.63700
N1835       N  0.70981443  0.80501583  0.78533608    -0.05600
N1836       N  0.69196883  0.81068138  0.75553080    -0.64400
Mn1837     Mn  0.76816649  0.81962583  0.82901060     1.10700
C1838       C  0.70581376  0.83298145  0.73620231     0.98500
C1839       C  0.70738773  0.83407314  0.92430099     0.98600
N1840       N  0.71998234  0.71300750  0.87635475    -0.06700
N1841       N  0.71445178  0.69557995  0.90681921    -0.62100
N1842       N  0.70179881  0.73590021  0.78560123    -0.06000
N1843       N  0.68396149  0.73493666  0.75486044    -0.58800
N1844       N  0.71960648  0.71277740  0.78567295    -0.07300
N1845       N  0.71411741  0.69547682  0.75523416    -0.61600
N1846       N  0.70232704  0.73622453  0.87694481    -0.06300
N1847       N  0.68453398  0.73521879  0.90803942    -0.58800
Mn1848     Mn  0.75422515  0.70754920  0.83049874     1.20200
Mn1849     Mn  0.70511604  0.77070812  0.83101104     1.10100
Cl1850     Cl  0.76121404  0.76360203  0.82976446    -0.86800
C1851       C  0.69229966  0.70970590  0.92610292     0.95600
C1852       C  0.69180485  0.70952524  0.73651823     0.95300
C1853       C  0.62411640  0.62329990  0.69696644    -0.27100
C1854       C  0.62643194  0.64219256  0.66397482    -0.15200
C1855       C  0.60826226  0.63602091  0.96637364     0.35400
C1856       C  0.58812902  0.61245914  0.96808812    -0.26600
C1857       C  0.58586599  0.59468877  0.00180421    -0.15800
C1858       C  0.60371271  0.59990580  0.69787520     0.36500
N1859       N  0.60183228  0.58185596  0.73259876    -0.90100
H1860       H  0.63832599  0.62658567  0.72224116     0.17600
H1861       H  0.57386916  0.60819587  0.94310187     0.17600
N1862       N  0.60896636  0.65453814  0.93203568    -0.89100
H1863       H  0.60648619  0.55994530  0.72485161     0.35000
H1864       H  0.58008060  0.58284321  0.74343697     0.40100
H1865       H  0.58779449  0.66352496  0.92818783     0.39700
H1866       H  0.61380027  0.64122899  0.90760335     0.34600
C1867       C  0.92788014  0.60935058  0.96369361    -0.27100
C1868       C  0.93075780  0.58887538  0.99449392    -0.15200
C1869       C  0.91352441  0.59195486  0.69345494     0.35400
C1870       C  0.89052165  0.61293189  0.69334656    -0.26600
C1871       C  0.88604074  0.63169701  0.66070772    -0.15800
C1872       C  0.90528278  0.63075095  0.96425981     0.36500
N1873       N  0.90356396  0.65173764  0.93262681    -0.90100
H1874       H  0.94330568  0.60870271  0.93903874     0.17600
H1875       H  0.87583938  0.61414312  0.71873554     0.17600
N1876       N  0.91724813  0.57272253  0.72669413    -0.89100
H1877       H  0.90098607  0.64002976  0.90628028     0.35000
H1878       H  0.92369631  0.66320379  0.93111246     0.40100
H1879       H  0.92037658  0.58586043  0.75169767     0.39700
H1880       H  0.89759989  0.56073328  0.73064059     0.34600
C1881       C  0.60959413  0.93834907  0.69285004    -0.27100
C1882       C  0.59130403  0.94023749  0.99270170    -0.15200
C1883       C  0.59951570  0.92431223  0.95871144     0.35400
C1884       C  0.62310806  0.90430848  0.96040996    -0.26600
C1885       C  0.63896501  0.89890732  0.66275889    -0.15800
C1886       C  0.63291939  0.91776490  0.69523857     0.36500
N1887       N  0.65074127  0.91647808  0.73021203    -0.90100
H1888       H  0.60487722  0.95284519  0.71756642     0.17600
H1889       H  0.62891108  0.89215637  0.93392612     0.17600
N1890       N  0.58430963  0.92823739  0.92209740    -0.89100
H1891       H  0.64291308  0.93138100  0.75145237     0.35000
H1892       H  0.67211488  0.92349587  0.72247692     0.40100
H1893       H  0.58581294  0.95053944  0.91396897     0.39700
H1894       H  0.56192732  0.92304007  0.92650514     0.34600
C1895       C  0.90950111  0.89465368  0.95920285    -0.27100
C1896       C  0.89489948  0.88818343  0.66148807    -0.15200
C1897       C  0.89868160  0.90735420  0.69405029     0.35400
C1898       C  0.91948136  0.93048445  0.69188549    -0.26600
C1899       C  0.93524293  0.93531984  0.99106820    -0.15800
C1900       C  0.93016611  0.91783266  0.95719336     0.36500
N1901       N  0.94514942  0.92311984  0.92023950    -0.90100
H1902       H  0.90608668  0.88134260  0.93305461     0.17600
H1903       H  0.92233780  0.94497966  0.71703569     0.17600
N1904       N  0.88098122  0.90403221  0.72901716    -0.89100
H1905       H  0.95846533  0.90467624  0.91427186     0.35000
H1906       H  0.95925571  0.94140677  0.92157233     0.40100
H1907       H  0.86928807  0.92375208  0.73358367     0.39700
H1908       H  0.89524615  0.90094257  0.75286869     0.34600
loop_ 
_geom_bond_atom_site_label_1 
_geom_bond_atom_site_label_2 
_geom_bond_distance 
_geom_bond_site_symmetry_2 
_ccdc_geom_bond_type 
C1            N6   1.360   1_556  A
C1          N320   1.362       .  A
C1          C147   1.489       .  S
N2            C3   1.357       .  A
N2          C160   1.361       .  A
C3            N4   1.356       .  A
C3           C67   1.458       .  S
N4          C164   1.356       .  A
C5            N6   1.357       .  A
C5          N322   1.356   1_554  A
C5           C68   1.461       .  S
C7           N12   1.360   1_556  A
C7          N326   1.361       .  A
C7          C136   1.488       .  S
N8            C9   1.358       .  A
N8          C166   1.362       .  A
C9           N10   1.356       .  A
C9           C90   1.461       .  S
N10         C170   1.356       .  A
C11          N12   1.356       .  A
C11         N328   1.355   1_554  A
C11          C89   1.459       .  S
C13          N18   1.362   1_556  A
C13         N332   1.360       .  A
C13         C122   1.488       .  S
N14          C15   1.357       .  A
N14         C172   1.361       .  A
C15          N16   1.357       .  A
C15          C79   1.462       .  S
N16         C176   1.357       .  A
C17          N18   1.359       .  A
C17         N334   1.357   1_554  A
C17          C78   1.461       .  S
N19          C24   1.353       .  A
N19         C977   1.353   1_455  A
N19          H51   1.037       .  S
N20          C28   1.352       .  A
N20         C504   1.352   1_545  A
N21          C26   1.354       .  A
N21         C979   1.354   1_455  A
N21          H52   1.037       .  S
N22          C30   1.351       .  A
N22         C506   1.352   1_545  A
C23         N973   1.354       .  A
C23          C31   1.387       .  A
C23          C39   1.417       .  A
C24          C40   1.415       .  A
C24          C32   1.386       .  A
C25         N975   1.353       .  A
C25          C33   1.387       .  A
C25          C42   1.415       .  A
C26          C41   1.417       .  A
C26          C34   1.387       .  A
C27         N497   1.353       .  A
C27          C39   1.416       .  A
C27         C512   1.386       .  A
C28          C42   1.416       .  A
C28          C36   1.386       .  A
C29         N499   1.352       .  A
C29          C40   1.415       .  A
C29         C514   1.387       .  A
C30          C38   1.386       .  A
C30          C41   1.414       .  A
C31         C986   1.376       .  A
C31          H43   1.082       .  S
C32         C985   1.375   1_455  A
C32          H44   1.082       .  S
C33         C988   1.377       .  A
C33          H45   1.082       .  S
C34         C987   1.376   1_455  A
C34          H46   1.082       .  S
C35          C36   1.376   1_565  A
C35         C504   1.386       .  A
C35         H524   1.082       .  S
C36          H48   1.082       .  S
C37          C38   1.373       .  A
C37         C506   1.387   1_545  A
C37         H526   1.082   1_545  S
C38          H50   1.082       .  S
C39         C150   1.492       .  S
C40         C133   1.487       .  S
C41         C108   1.490       .  S
C42         C119   1.488       .  S
H47         C512   1.082       .  S
H49         C514   1.082       .  S
C53          N58   1.363   1_556  A
C53         N372   1.359       .  A
C53         C105   1.489       .  S
N54          C55   1.356       .  A
N54         C212   1.360       .  A
C55          N56   1.357       .  A
C55         C102   1.462       .  S
N56         C216   1.358       .  A
C57          N58   1.358       .  A
C57         N374   1.356   1_554  A
C57         C103   1.463       .  S
N59          N60   1.320       .  A
N59          N65   1.316       .  A
N59         Mn88   2.197       .  S
N60          C67   1.350       .  A
N61          N63   1.316       .  A
N61          N62   1.322       .  A
N61         Mn77   2.209       .  S
N62          C68   1.352       .  A
N63          N64   1.320       .  A
N63         Mn88   2.199       .  S
N64          C68   1.350       .  A
N65          N66   1.321       .  A
N65         Mn77   2.203       .  S
N66          C67   1.351       .  A
N69          N75   1.317       .  A
N69          N70   1.323       .  A
N69         Mn99   2.214       .  S
N70          C78   1.353       .  A
N71          N72   1.320       .  A
N71          N73   1.316       .  A
N71         Mn77   2.200       .  S
N72          C79   1.351       .  A
N73          N74   1.322       .  A
N73         Mn99   2.207       .  S
N74          C79   1.352       .  A
N75          N76   1.319       .  A
N75         Mn77   2.197       .  S
N76          C78   1.350       .  A
Mn77       Cl101   2.549       .  S
N80          N81   1.321       .  A
N80          N86   1.316       .  A
N80         Mn88   2.203       .  S
N81          C89   1.351       .  A
N82          N84   1.316       .  A
N82          N83   1.320       .  A
N82        Mn100   2.204       .  S
N83          C90   1.351       .  A
N84          N85   1.322       .  A
N84         Mn88   2.202       .  S
N85          C90   1.351       .  A
N86          N87   1.320       .  A
N86        Mn100   2.202       .  S
N87          C89   1.351       .  A
Mn88       Cl101   2.550       .  S
N91          N92   1.320       .  A
N91          N97   1.316       .  A
N91         Mn99   2.204       .  S
N92         C102   1.351       .  A
N93          N94   1.322       .  A
N93          N95   1.317       .  A
N93        Mn100   2.213       .  S
N94         C103   1.353       .  A
N95          N96   1.320       .  A
N95         Mn99   2.202       .  S
N96         C103   1.351       .  A
N97          N98   1.322       .  A
N97        Mn100   2.207       .  S
N98         C102   1.352       .  A
Mn99       Cl101   2.550       .  S
Mn100      Cl101   2.550       .  S
C104        C105   1.407   1_554  A
C104        C109   1.401       .  A
C104        H111   1.083       .  S
C105        C424   1.415       .  A
C106        C107   1.402       .  A
C106        C264   1.414       .  A
C106        N113   1.432       .  S
C107        C108   1.401       .  A
C107        H112   1.084       .  S
C108        C268   1.417       .  A
C109        C426   1.415   1_554  A
C109        N110   1.438       .  S
N110        H114   1.046       .  S
N110        H115   1.043       .  S
N113        H116   1.046       .  S
N113        H117   1.046       .  S
C118        C119   1.400       .  A
C118        C123   1.405       .  A
C118        H125   1.084       .  S
C119        C279   1.405       .  A
C120        C121   1.404       .  A
C120        C437   1.405   1_554  A
C120        N127   1.432       .  S
C121        C122   1.408   1_554  A
C121        H126   1.083       .  S
C122        C441   1.416       .  A
C123        C281   1.416       .  A
C123        N124   1.432       .  S
N124        H128   1.046       .  S
N124        H129   1.046       .  S
N127        H130   1.046       .  S
N127        H131   1.045       .  S
C132        C137   1.405       .  A
C132        C451   1.401   1_554  A
C132        H139   1.084       .  S
C133        C134   1.409       .  A
C133        C291   1.400       .  A
C134        C135   1.398       .  A
C134        N141   1.432       .  S
C135        C295   1.407       .  A
C135        H140   1.083       .  S
C136        C137   1.416   1_556  A
C136        C453   1.406       .  A
C137        N138   1.438       .  S
N138        H142   1.046       .  S
N138        H143   1.046       .  S
N141        H144   1.045       .  S
N141        H145   1.045       .  S
C146        C151   1.403       .  A
C146        C306   1.407       .  A
C146        H153   1.084       .  S
C147        C148   1.414   1_556  A
C147        C464   1.407       .  A
C148        C149   1.403       .  A
C148        N155   1.432       .  S
C149        C468   1.401   1_554  A
C149        H154   1.084       .  S
C150        C151   1.417       .  A
C150        C308   1.402       .  A
C151        N152   1.438       .  S
N152        H156   1.046       .  S
N152        H157   1.043       .  S
N155        H158   1.046       .  S
N155        H159   1.046       .  S
C160        N165   1.361       .  A
C160        C306   1.490       .  S
N161        C319   1.359       .  A
N161        C162   1.355       .  A
C162        N163   1.356       .  A
C162        C226   1.456       .  S
N163        C323   1.356       .  A
C164        N165   1.358       .  A
C164        C227   1.461       .  S
C166        N171   1.359       .  A
C166        C295   1.489       .  S
N167        C325   1.360       .  A
N167        C168   1.356       .  A
C168        N169   1.356       .  A
C168        C249   1.459       .  S
N169        C329   1.357       .  A
C170        N171   1.356       .  A
C170        C248   1.457       .  S
C172        N177   1.362       .  A
C172        C281   1.492       .  S
N173        C331   1.362       .  A
N173        C174   1.358       .  A
C174        N175   1.356       .  A
C174        C238   1.464       .  S
N175        C335   1.357       .  A
C176        N177   1.359       .  A
C176        C237   1.463       .  S
N178        C183   1.352       .  A
N178       C1136   1.352   1_455  A
N178        H210   1.037       .  S
N179        C663   1.352   1_545  A
N179        C187   1.351       .  A
N180        C185   1.354       .  A
N180       C1138   1.353   1_455  A
N180        H211   1.033       .  S
N181        C665   1.351   1_545  A
N181        C189   1.351       .  A
C182       N1132   1.352       .  A
C182        C190   1.387       .  A
C182        C198   1.415       .  A
C183        C199   1.414       .  A
C183        C191   1.387       .  A
C184       N1134   1.354       .  A
C184        C192   1.387       .  A
C184        C201   1.416       .  A
C185        C200   1.416       .  A
C185        C193   1.387       .  A
C186        N656   1.351       .  A
C186        C198   1.413       .  A
C186        C671   1.386       .  A
C187        C201   1.415       .  A
C187        C195   1.387       .  A
C188        N658   1.351       .  A
C188        C673   1.387       .  A
C188        C199   1.413       .  A
C189        C197   1.386       .  A
C189        C200   1.413       .  A
C190       C1145   1.375       .  A
C190        H202   1.082       .  S
C191       C1144   1.376   1_455  A
C191        H203   1.082       .  S
C192       C1147   1.375       .  A
C192        H204   1.082       .  S
C193       C1146   1.375   1_455  A
C193        H205   1.082       .  S
C194        C663   1.386       .  A
C194        C195   1.375   1_565  A
C194        H683   1.082       .  S
C195        H207   1.082       .  S
C196        C665   1.387   1_545  A
C196        C197   1.372       .  A
C196        H685   1.082   1_545  S
C197        H209   1.082       .  S
C198        C309   1.485       .  S
C199        C292   1.485       .  S
C200        C267   1.486       .  S
C201        C278   1.488       .  S
H206        C671   1.082       .  S
H208        C673   1.082       .  S
C212        N217   1.363       .  A
C212        C264   1.489       .  S
N213        C371   1.359       .  A
N213        C214   1.355       .  A
C214        N215   1.355       .  A
C214        C261   1.459       .  S
N215        C375   1.356       .  A
C216        N217   1.360       .  A
C216        C262   1.465       .  S
N218        N219   1.320       .  A
N218        N224   1.316       .  A
N218       Mn247   2.195       .  S
N219        C226   1.350       .  A
N220        N222   1.316       .  A
N220        N221   1.322       .  A
N220       Mn236   2.207       .  S
N221        C227   1.352       .  A
N222        N223   1.320       .  A
N222       Mn247   2.199       .  S
N223        C227   1.350       .  A
N224        N225   1.320       .  A
N224       Mn236   2.200       .  S
N225        C226   1.350       .  A
N228        N234   1.316       .  A
N228        N229   1.323       .  A
N228       Mn258   2.213       .  S
N229        C237   1.353       .  A
N230        N231   1.321       .  A
N230        N232   1.316       .  A
N230       Mn236   2.200       .  S
N231        C238   1.351       .  A
N232        N233   1.322       .  A
N232       Mn258   2.213       .  S
N233        C238   1.352       .  A
N234        N235   1.319       .  A
N234       Mn236   2.196       .  S
N235        C237   1.349       .  A
Mn236      Cl260   2.550       .  S
N239        N240   1.320       .  A
N239        N245   1.316       .  A
N239       Mn247   2.198       .  S
N240        C248   1.350       .  A
N241        N243   1.316       .  A
N241        N242   1.319       .  A
N241       Mn259   2.200       .  S
N242        C249   1.350       .  A
N243        N244   1.322       .  A
N243       Mn247   2.204       .  S
N244        C249   1.352       .  A
N245        N246   1.320       .  A
N245       Mn259   2.203       .  S
N246        C248   1.351       .  A
Mn247      Cl260   2.547       .  S
N250        N251   1.319       .  A
N250        N256   1.316       .  A
N250       Mn258   2.201       .  S
N251        C261   1.350       .  A
N252        N253   1.322       .  A
N252        N254   1.316       .  A
N252       Mn259   2.211       .  S
N253        C262   1.353       .  A
N254        N255   1.321       .  A
N254       Mn258   2.206       .  S
N255        C262   1.351       .  A
N256        N257   1.322       .  A
N256       Mn259   2.206       .  S
N257        C261   1.352       .  A
Mn258      Cl260   2.546       .  S
Mn259      Cl260   2.551       .  S
C263        C264   1.406       .  A
C263        C268   1.404       .  A
C263        H270   1.084       .  S
C265        C423   1.418       .  A
C265        C266   1.402       .  A
C265        N272   1.432       .  S
C266        C267   1.398       .  A
C266        H271   1.084       .  S
C267        C427   1.410       .  A
C268        N269   1.438       .  S
N269        H273   1.046       .  S
N269        H274   1.043       .  S
N272        H275   1.046       .  S
N272        H276   1.046       .  S
C277        C278   1.400       .  A
C277        C282   1.405       .  A
C277        H284   1.084       .  S
C278        C438   1.406       .  A
C279        C280   1.405       .  A
C279        N286   1.432       .  S
C280        C281   1.409       .  A
C280        H285   1.083       .  S
C282        C440   1.415       .  A
C282        N283   1.432       .  S
N283        H287   1.046       .  S
N283        H288   1.046       .  S
N286        H289   1.046       .  S
N286        H290   1.045       .  S
C291        C296   1.406       .  A
C291        H298   1.084       .  S
C292        C450   1.401       .  A
C292        C293   1.409       .  A
C293        C294   1.397       .  A
C293        N300   1.433       .  S
C294        C454   1.408       .  A
C294        H299   1.083       .  S
C295        C296   1.419       .  A
C296        N297   1.438       .  S
N297        H301   1.046       .  S
N297        H302   1.046       .  S
N300        H303   1.045       .  S
N300        H304   1.045       .  S
C305        C465   1.408       .  A
C305        C310   1.401       .  A
C305        H312   1.084       .  S
C306        C307   1.413       .  A
C307        C308   1.404       .  A
C307        N314   1.432       .  S
C308        H313   1.084       .  S
C309        C467   1.401       .  A
C309        C310   1.415       .  A
C310        N311   1.439       .  S
N311        H315   1.046       .  S
N311        H316   1.043       .  S
N314        H317   1.046       .  S
N314        H318   1.046       .  S
C319        N324   1.362       .  A
C319        C465   1.487       .  S
N320        C321   1.359       .  A
C321        N322   1.357       .  A
C321        C385   1.462       .  S
C323        N324   1.359       .  A
C323        C386   1.463       .  S
C325        N330   1.360       .  A
C325        C454   1.487       .  S
N326        C327   1.358       .  A
C327        N328   1.356       .  A
C327        C408   1.459       .  S
C329        N330   1.357       .  A
C329        C407   1.461       .  S
C331        N336   1.361       .  A
C331        C440   1.491       .  S
N332        C333   1.356       .  A
C333        N334   1.356       .  A
C333        C397   1.461       .  S
C335        N336   1.358       .  A
C335        C396   1.460       .  S
N337        C342   1.352       .  A
N337       C1295   1.352   1_456  A
N337        H369   1.034       .  S
N338        C822   1.352   1_545  A
N338        C346   1.351       .  A
N339        C344   1.353   1_556  A
N339       C1297   1.352   1_456  A
N339        H370   1.037       .  S
N340        C824   1.350   1_545  A
N340        C348   1.351       .  A
C341       N1291   1.352   1_554  A
C341        C349   1.388       .  A
C341        C357   1.417   1_554  A
C342        C358   1.416       .  A
C342        C350   1.387   1_556  A
C343       N1293   1.351   1_554  A
C343        C351   1.388       .  A
C343        C360   1.415   1_554  A
C344        C359   1.415   1_554  A
C344        C352   1.386       .  A
C345        N815   1.353       .  A
C345        C357   1.417       .  A
C345        C830   1.386       .  A
C346        C360   1.415       .  A
C346        C354   1.387       .  A
C347        N817   1.353       .  A
C347        C832   1.386       .  A
C347        C358   1.416       .  A
C348        C356   1.386       .  A
C348        C359   1.412       .  A
C349       C1304   1.375       .  A
C349        H361   1.082       .  S
C350       C1303   1.375   1_455  A
C350        H362   1.082       .  S
C351       C1306   1.375       .  A
C351        H363   1.082       .  S
C352       C1305   1.375   1_455  A
C352        H364   1.082       .  S
C353        C822   1.386       .  A
C353        C354   1.375   1_565  A
C353        H842   1.082       .  S
C354        H366   1.082       .  S
C355        C824   1.387   1_545  A
C355        C356   1.371       .  A
C355        H844   1.082   1_545  S
C356        H368   1.082       .  S
C357        C468   1.489       .  S
C358        C451   1.490       .  S
C359        C426   1.486       .  S
C360        C437   1.484       .  S
H365        C830   1.082       .  S
H367        C832   1.082       .  S
C371        N376   1.362       .  A
C371        C423   1.491       .  S
N372        C373   1.356       .  A
C373        N374   1.356       .  A
C373        C420   1.458       .  S
C375        N376   1.358       .  A
C375        C421   1.460       .  S
N377        N378   1.320       .  A
N377        N383   1.316       .  A
N377       Mn406   2.199       .  S
N378        C385   1.350       .  A
N379        N381   1.316       .  A
N379        N380   1.323       .  A
N379       Mn395   2.215       .  S
N380        C386   1.353       .  A
N381        N382   1.320       .  A
N381       Mn406   2.199       .  S
N382        C386   1.350       .  A
N383        N384   1.322       .  A
N383       Mn395   2.210       .  S
N384        C385   1.353       .  A
N387        N393   1.317       .  A
N387        N388   1.322       .  A
N387       Mn417   2.207       .  S
N388        C396   1.352       .  A
N389        N390   1.321       .  A
N389        N391   1.317       .  A
N389       Mn395   2.204       .  S
N390        C397   1.351       .  A
N391        N392   1.321       .  A
N391       Mn417   2.207       .  S
N392        C397   1.351       .  A
N393        N394   1.319       .  A
N393       Mn395   2.201       .  S
N394        C396   1.350       .  A
Mn395      Cl419   2.550       .  S
N398        N399   1.321       .  A
N398        N404   1.316       .  A
N398       Mn406   2.204       .  S
N399        C407   1.351       .  A
N400        N402   1.316       .  A
N400        N401   1.319       .  A
N400       Mn418   2.195       .  S
N401        C408   1.349       .  A
N402        N403   1.322       .  A
N402       Mn406   2.206       .  S
N403        C408   1.352       .  A
N404        N405   1.321       .  A
N404       Mn418   2.202       .  S
N405        C407   1.352       .  A
Mn406      Cl419   2.549       .  S
N409        N410   1.320       .  A
N409        N415   1.316       .  A
N409       Mn417   2.199       .  S
N410        C420   1.350       .  A
N411        N412   1.320       .  A
N411        N413   1.316       .  A
N411       Mn418   2.200       .  S
N412        C421   1.350       .  A
N413        N414   1.321       .  A
N413       Mn417   2.206       .  S
N414        C421   1.352       .  A
N415        N416   1.321       .  A
N415       Mn418   2.202       .  S
N416        C420   1.351       .  A
Mn417      Cl419   2.551       .  S
Mn418      Cl419   2.549       .  S
C422        C423   1.409       .  A
C422        C427   1.400       .  A
C422        H429   1.083       .  S
C424        C425   1.403       .  A
C424        N431   1.433       .  S
C425        C426   1.401       .  A
C425        H430   1.084       .  S
C427        N428   1.432       .  S
N428        H432   1.045       .  S
N428        H433   1.045       .  S
N431        H434   1.046       .  S
N431        H435   1.046       .  S
C436        C437   1.398       .  A
C436        C441   1.402       .  A
C436        H443   1.084       .  S
C438        C439   1.405       .  A
C438        N445   1.432       .  S
C439        C440   1.408       .  A
C439        H444   1.083       .  S
C441        N442   1.432       .  S
N442        H446   1.046       .  S
N442        H447   1.046       .  S
N445        H448   1.046       .  S
N445        H449   1.045       .  S
C450        C455   1.406       .  A
C450        H457   1.084       .  S
C451        C452   1.416       .  A
C452        C453   1.402       .  A
C452        N459   1.439       .  S
C453        H458   1.084       .  S
C454        C455   1.417       .  A
C455        N456   1.438       .  S
N456        H460   1.046       .  S
N456        H461   1.046       .  S
N459        H462   1.043       .  S
N459        H463   1.046       .  S
C464        C469   1.402       .  A
C464        H471   1.084       .  S
C465        C466   1.413       .  A
C466        C467   1.402       .  A
C466        N473   1.432       .  S
C467        H472   1.084       .  S
C468        C469   1.416       .  A
C469        N470   1.439       .  S
N470        H474   1.046       .  S
N470        H475   1.043       .  S
N473        H476   1.046       .  S
N473        H477   1.046       .  S
C478        N797   1.360       .  A
C478        N483   1.361   1_556  A
C478        C624   1.487       .  S
N479        C637   1.360       .  A
N479        C480   1.355       .  A
C480        N481   1.357       .  A
C480        C544   1.459       .  S
N481        C641   1.357       .  A
C482        N799   1.355   1_554  A
C482        N483   1.358       .  A
C482        C545   1.459       .  S
C484        N803   1.361       .  A
C484        N489   1.359   1_556  A
C484        C613   1.491       .  S
N485        C643   1.360       .  A
N485        C486   1.356       .  A
C486        N487   1.356       .  A
C486        C567   1.457       .  S
N487        C647   1.356       .  A
C488        N805   1.356   1_554  A
C488        N489   1.356       .  A
C488        C566   1.458       .  S
C490        N809   1.361       .  A
C490        N495   1.360   1_556  A
C490        C599   1.487       .  S
N491        C649   1.360       .  A
N491        C492   1.358       .  A
C492        N493   1.357       .  A
C492        C556   1.463       .  S
N493        C653   1.357       .  A
C494        N811   1.357   1_554  A
C494        N495   1.357       .  A
C494        C555   1.462       .  S
N496        C501   1.353       .  A
N496       C1454   1.352   1_455  A
N496        H528   1.036       .  S
N497        C505   1.352       .  A
N498        C503   1.354       .  A
N498       C1456   1.355   1_455  A
N498        H529   1.036       .  S
N499        C507   1.352       .  A
C500       N1450   1.353       .  A
C500        C508   1.387       .  A
C500        C516   1.416       .  A
C501        C517   1.415       .  A
C501        C509   1.387       .  A
C502       N1452   1.353       .  A
C502        C510   1.387       .  A
C502        C519   1.416       .  A
C503        C518   1.419       .  A
C503        C511   1.387       .  A
C504        C516   1.415       .  A
C505        C519   1.416       .  A
C505        C513   1.387       .  A
C506        C517   1.415       .  A
C507        C515   1.386       .  A
C507        C518   1.415       .  A
C508       C1463   1.376       .  A
C508        H520   1.082       .  S
C509       C1462   1.375   1_455  A
C509        H521   1.082       .  S
C510       C1465   1.375       .  A
C510        H522   1.082       .  S
C511       C1464   1.376   1_455  A
C511        H523   1.082       .  S
C512        C513   1.374       .  A
C513        H525   1.082       .  S
C514        C515   1.372       .  A
C515        H527   1.082       .  S
C516        C627   1.489       .  S
C517        C610   1.487       .  S
C518        C585   1.491       .  S
C519        C596   1.488       .  S
C530        N849   1.360       .  A
C530        N535   1.362   1_556  A
C530        C582   1.489       .  S
N531        C689   1.361       .  A
N531        C532   1.357       .  A
C532        N533   1.355       .  A
C532        C579   1.464       .  S
N533        C693   1.357       .  A
C534        N851   1.358       .  A
C534        N535   1.360       .  A
C534        C580   1.463       .  S
N536        N537   1.319       .  A
N536        N542   1.316       .  A
N536       Mn565   2.192       .  S
N537        C544   1.350       .  A
N538        N540   1.316       .  A
N538        N539   1.322       .  A
N538       Mn554   2.207       .  S
N539        C545   1.352       .  A
N540        N541   1.319       .  A
N540       Mn565   2.197       .  S
N541        C545   1.350       .  A
N542        N543   1.321       .  A
N542       Mn554   2.205       .  S
N543        C544   1.352       .  A
N546        N552   1.316       .  A
N546        N547   1.324       .  A
N546       Mn576   2.215       .  S
N547        C555   1.354       .  A
N548        N549   1.320       .  A
N548        N550   1.316       .  A
N548       Mn554   2.198       .  S
N549        C556   1.350       .  A
N550        N551   1.322       .  A
N550       Mn576   2.212       .  S
N551        C556   1.353       .  A
N552        N553   1.319       .  A
N552       Mn554   2.195       .  S
N553        C555   1.349       .  A
Mn554      Cl578   2.548       .  S
N557        N558   1.320       .  A
N557        N563   1.316       .  A
N557       Mn565   2.198       .  S
N558        C566   1.350       .  A
N559        N561   1.316       .  A
N559        N560   1.318       .  A
N559       Mn577   2.196       .  S
N560        C567   1.349       .  A
N561        N562   1.322       .  A
N561       Mn565   2.203       .  S
N562        C567   1.352       .  A
N563        N564   1.321       .  A
N563       Mn577   2.206       .  S
N564        C566   1.352       .  A
Mn565      Cl578   2.549       .  S
N568        N569   1.320       .  A
N568        N574   1.316       .  A
N568       Mn576   2.200       .  S
N569        C579   1.350       .  A
N570        N571   1.322       .  A
N570        N572   1.316       .  A
N570       Mn577   2.208       .  S
N571        C580   1.352       .  A
N572        N573   1.320       .  A
N572       Mn576   2.203       .  S
N573        C580   1.351       .  A
N574        N575   1.323       .  A
N574       Mn577   2.216       .  S
N575        C579   1.353       .  A
Mn576      Cl578   2.549       .  S
Mn577      Cl578   2.548       .  S
C581        C582   1.406   1_554  A
C581        C586   1.401       .  A
C581        H588   1.084       .  S
C582        C901   1.417       .  A
C583        C741   1.415       .  A
C583        C584   1.402       .  A
C583        N590   1.432       .  S
C584        C585   1.400       .  A
C584        H589   1.084       .  S
C585        C745   1.417       .  A
C586        C903   1.413   1_554  A
C586        N587   1.433       .  S
N587        H591   1.044       .  S
N587        H592   1.046       .  S
N590        H593   1.046       .  S
N590        H594   1.046       .  S
C595        C596   1.401       .  A
C595        C600   1.405       .  A
C595        H602   1.084       .  S
C596        C756   1.405       .  A
C597        C914   1.406   1_554  A
C597        C598   1.403       .  A
C597        N604   1.432       .  S
C598        C599   1.407   1_554  A
C598        H603   1.083       .  S
C599        C918   1.413       .  A
C600        C758   1.415       .  A
C600        N601   1.432       .  S
N601        H605   1.046       .  S
N601        H606   1.046       .  S
N604        H607   1.046       .  S
N604        H608   1.045       .  S
C609        C928   1.398   1_554  A
C609        C614   1.405       .  A
C609        H616   1.084       .  S
C610        C768   1.400       .  A
C610        C611   1.410       .  A
C611        C612   1.399       .  A
C611        N618   1.433       .  S
C612        C772   1.408       .  A
C612        H617   1.084       .  S
C613        C930   1.409       .  A
C613        C614   1.421   1_556  A
C614        N615   1.438       .  S
N615        H619   1.046       .  S
N615        H620   1.046       .  S
N618        H621   1.045       .  S
N618        H622   1.045       .  S
C623        C783   1.409       .  A
C623        C628   1.402       .  A
C623        H630   1.083       .  S
C624        C941   1.406       .  A
C624        C625   1.412   1_556  A
C625        C626   1.404       .  A
C625        N632   1.432       .  S
C626        C945   1.402   1_554  A
C626        H631   1.084       .  S
C627        C785   1.402       .  A
C627        C628   1.414       .  A
C628        N629   1.438       .  S
N629        H633   1.046       .  S
N629        H634   1.043       .  S
N632        H635   1.046       .  S
N632        H636   1.046       .  S
C637        N642   1.362       .  A
C637        C783   1.493       .  S
N638        C796   1.360       .  A
N638        C639   1.355       .  A
C639        N640   1.355       .  A
C639        C703   1.457       .  S
N640        C800   1.356       .  A
C641        N642   1.359       .  A
C641        C704   1.464       .  S
C643        N648   1.360       .  A
C643        C772   1.488       .  S
N644        C802   1.359       .  A
N644        C645   1.355       .  A
C645        N646   1.356       .  A
C645        C726   1.457       .  S
N646        C806   1.356       .  A
C647        N648   1.357       .  A
C647        C725   1.461       .  S
C649        N654   1.361       .  A
C649        C758   1.488       .  S
N650        C808   1.360       .  A
N650        C651   1.357       .  A
C651        N652   1.356       .  A
C651        C715   1.462       .  S
N652        C812   1.357       .  A
C653        N654   1.358       .  A
C653        C714   1.462       .  S
N655        C660   1.353       .  A
N655       C1613   1.353   1_455  A
N655        H687   1.034       .  S
N656        C664   1.351       .  A
N657        C662   1.354       .  A
N657       C1615   1.354   1_455  A
N657        H688   1.036       .  S
N658        C666   1.351       .  A
C659       N1609   1.353       .  A
C659        C667   1.387       .  A
C659        C675   1.414       .  A
C660        C676   1.415       .  A
C660        C668   1.387       .  A
C661       N1611   1.354       .  A
C661        C669   1.387       .  A
C661        C678   1.417       .  A
C662        C677   1.418       .  A
C662        C670   1.387       .  A
C663        C675   1.414       .  A
C664        C678   1.415       .  A
C664        C672   1.387       .  A
C665        C676   1.413       .  A
C666        C674   1.386       .  A
C666        C677   1.413       .  A
C667       C1622   1.375       .  A
C667        H679   1.082       .  S
C668       C1621   1.374   1_455  A
C668        H680   1.082       .  S
C669       C1624   1.376       .  A
C669        H681   1.082       .  S
C670       C1623   1.376   1_455  A
C670        H682   1.082       .  S
C671        C672   1.372       .  A
C672        H684   1.082       .  S
C673        C674   1.372       .  A
C674        H686   1.082       .  S
C675        C786   1.488       .  S
C676        C769   1.483       .  S
C677        C744   1.489       .  S
C678        C755   1.489       .  S
C689        N694   1.362       .  A
C689        C741   1.494       .  S
N690        C848   1.359       .  A
N690        C691   1.355       .  A
C691        N692   1.356       .  A
C691        C738   1.462       .  S
N692        C852   1.358       .  A
C693        N694   1.359       .  A
C693        C739   1.459       .  S
N695        N696   1.320       .  A
N695        N701   1.316       .  A
N695       Mn724   2.197       .  S
N696        C703   1.351       .  A
N697        N699   1.316       .  A
N697        N698   1.323       .  A
N697       Mn713   2.216       .  S
N698        C704   1.353       .  A
N699        N700   1.320       .  A
N699       Mn724   2.198       .  S
N700        C704   1.350       .  A
N701        N702   1.320       .  A
N701       Mn713   2.198       .  S
N702        C703   1.350       .  A
N705        N711   1.316       .  A
N705        N706   1.324       .  A
N705       Mn735   2.217       .  S
N706        C714   1.354       .  A
N707        N708   1.321       .  A
N707        N709   1.316       .  A
N707       Mn713   2.207       .  S
N708        C715   1.352       .  A
N709        N710   1.322       .  A
N709       Mn735   2.205       .  S
N710        C715   1.351       .  A
N711        N712   1.318       .  A
N711       Mn713   2.191       .  S
N712        C714   1.348       .  A
Mn713      Cl737   2.549       .  S
N716        N717   1.321       .  A
N716        N722   1.316       .  A
N716       Mn724   2.204       .  S
N717        C725   1.351       .  A
N718        N720   1.316       .  A
N718        N719   1.318       .  A
N718       Mn736   2.191       .  S
N719        C726   1.348       .  A
N720        N721   1.322       .  A
N720       Mn724   2.206       .  S
N721        C726   1.352       .  A
N722        N723   1.321       .  A
N722       Mn736   2.206       .  S
N723        C725   1.352       .  A
Mn724      Cl737   2.548       .  S
N727        N728   1.319       .  A
N727        N733   1.316       .  A
N727       Mn735   2.202       .  S
N728        C738   1.350       .  A
N729        N730   1.321       .  A
N729        N731   1.316       .  A
N729       Mn736   2.205       .  S
N730        C739   1.352       .  A
N731        N732   1.319       .  A
N731       Mn735   2.196       .  S
N732        C739   1.350       .  A
N733        N734   1.323       .  A
N733       Mn736   2.210       .  S
N734        C738   1.353       .  A
Mn735      Cl737   2.548       .  S
Mn736      Cl737   2.549       .  S
C740        C741   1.409       .  A
C740        C745   1.405       .  A
C740        H747   1.084       .  S
C742        C900   1.416       .  A
C742        C743   1.403       .  A
C742        N749   1.432       .  S
C743        C744   1.399       .  A
C743        H748   1.084       .  S
C744        C904   1.412       .  A
C745        N746   1.438       .  S
N746        H750   1.046       .  S
N746        H751   1.043       .  S
N749        H752   1.046       .  S
N749        H753   1.046       .  S
C754        C755   1.401       .  A
C754        C759   1.404       .  A
C754        H761   1.084       .  S
C755        C915   1.407       .  A
C756        C757   1.403       .  A
C756        N763   1.432       .  S
C757        C758   1.407       .  A
C757        H762   1.083       .  S
C759        C917   1.414       .  A
C759        N760   1.432       .  S
N760        H764   1.046       .  S
N760        H765   1.046       .  S
N763        H766   1.046       .  S
N763        H767   1.046       .  S
C768        C773   1.406       .  A
C768        H775   1.084       .  S
C769        C927   1.399       .  A
C769        C770   1.408       .  A
C770        C771   1.398       .  A
C770        N777   1.433       .  S
C771        C931   1.410       .  A
C771        H776   1.083       .  S
C772        C773   1.417       .  A
C773        N774   1.438       .  S
N774        H778   1.046       .  S
N774        H779   1.046       .  S
N777        H780   1.046       .  S
N777        H781   1.045       .  S
C782        C942   1.410       .  A
C782        C787   1.400       .  A
C782        H789   1.083       .  S
C783        C784   1.414       .  A
C784        C785   1.405       .  A
C784        N791   1.432       .  S
C785        H790   1.084       .  S
C786        C944   1.401       .  A
C786        C787   1.409       .  A
C787        N788   1.433       .  S
N788        H792   1.045       .  S
N788        H793   1.046       .  S
N791        H794   1.046       .  S
N791        H795   1.046       .  S
C796        N801   1.363       .  A
C796        C942   1.493       .  S
N797        C798   1.356       .  A
C798        N799   1.356       .  A
C798        C862   1.456       .  S
C800        N801   1.360       .  A
C800        C863   1.464       .  S
C802        N807   1.361       .  A
C802        C931   1.489       .  S
N803        C804   1.357       .  A
C804        N805   1.356       .  A
C804        C885   1.459       .  S
C806        N807   1.358       .  A
C806        C884   1.462       .  S
C808        N813   1.361       .  A
C808        C917   1.487       .  S
N809        C810   1.359       .  A
C810        N811   1.358       .  A
C810        C874   1.465       .  S
C812        N813   1.358       .  A
C812        C873   1.460       .  S
N814        C819   1.352       .  A
N814       C1772   1.352   1_455  A
N814        H846   1.035       .  S
N815        C823   1.354       .  A
N816        C821   1.355       .  A
N816       C1774   1.355   1_455  A
N816        H847   1.035       .  S
N817        C825   1.352       .  A
C818       N1768   1.353       .  A
C818        C826   1.387   1_556  A
C818        C834   1.415       .  A
C819        C835   1.415       .  A
C819        C827   1.387   1_556  A
C820       N1770   1.353   1_554  A
C820        C828   1.387       .  A
C820        C837   1.416   1_554  A
C821        C836   1.418       .  A
C821        C829   1.387   1_556  A
C822        C834   1.414       .  A
C823        C837   1.418       .  A
C823        C831   1.386       .  A
C824        C835   1.413       .  A
C825        C833   1.386       .  A
C825        C836   1.415       .  A
C826       C1781   1.376       .  A
C826        H838   1.082       .  S
C827       C1780   1.376   1_455  A
C827        H839   1.082       .  S
C828       C1783   1.375       .  A
C828        H840   1.082       .  S
C829       C1782   1.375   1_455  A
C829        H841   1.082       .  S
C830        C831   1.373       .  A
C831        H843   1.082       .  S
C832        C833   1.375       .  A
C833        H845   1.082       .  S
C834        C945   1.490       .  S
C835        C928   1.481       .  S
C836        C903   1.493       .  S
C837        C914   1.491       .  S
C848        N853   1.362       .  A
C848        C900   1.491       .  S
N849        C850   1.356       .  A
C850        N851   1.356   1_556  A
C850        C897   1.461       .  S
C852        N853   1.360       .  A
C852        C898   1.462       .  S
N854        N855   1.320       .  A
N854        N860   1.316       .  A
N854       Mn883   2.198       .  S
N855        C862   1.351       .  A
N856        N858   1.317       .  A
N856        N857   1.322       .  A
N856       Mn872   2.214       .  S
N857        C863   1.353       .  A
N858        N859   1.321       .  A
N858       Mn883   2.202       .  S
N859        C863   1.351       .  A
N860        N861   1.320       .  A
N860       Mn872   2.196       .  S
N861        C862   1.350       .  A
N864        N870   1.316       .  A
N864        N865   1.323       .  A
N864       Mn894   2.215       .  S
N865        C873   1.354       .  A
N866        N867   1.321       .  A
N866        N868   1.316       .  A
N866       Mn872   2.205       .  S
N867        C874   1.351       .  A
N868        N869   1.322       .  A
N868       Mn894   2.210       .  S
N869        C874   1.353       .  A
N870        N871   1.318       .  A
N870       Mn872   2.191       .  S
N871        C873   1.349       .  A
Mn872      Cl896   2.550       .  S
N875        N876   1.321       .  A
N875        N881   1.316       .  A
N875       Mn883   2.207       .  S
N876        C884   1.351       .  A
N877        N879   1.316       .  A
N877        N878   1.319       .  A
N877       Mn895   2.198       .  S
N878        C885   1.350       .  A
N879        N880   1.322       .  A
N879       Mn883   2.207       .  S
N880        C885   1.352       .  A
N881        N882   1.321       .  A
N881       Mn895   2.206       .  S
N882        C884   1.352       .  A
Mn883      Cl896   2.550       .  S
N886        N887   1.320       .  A
N886        N892   1.316       .  A
N886       Mn894   2.199       .  S
N887        C897   1.350       .  A
N888        N889   1.322       .  A
N888        N890   1.317       .  A
N888       Mn895   2.208       .  S
N889        C898   1.352       .  A
N890        N891   1.320       .  A
N890       Mn894   2.202       .  S
N891        C898   1.351       .  A
N892        N893   1.323       .  A
N892       Mn895   2.211       .  S
N893        C897   1.352       .  A
Mn894      Cl896   2.550       .  S
Mn895      Cl896   2.551       .  S
C899        C900   1.408       .  A
C899        C904   1.402       .  A
C899        H906   1.083       .  S
C901        C902   1.406       .  A
C901        N908   1.438       .  S
C902        C903   1.401       .  A
C902        H907   1.084       .  S
C904        N905   1.433       .  S
N905        H909   1.044       .  S
N905        H910   1.045       .  S
N908        H911   1.046       .  S
N908        H912   1.046       .  S
C913        C914   1.403       .  A
C913        C918   1.406       .  A
C913        H920   1.084       .  S
C915        C916   1.404       .  A
C915        N922   1.432       .  S
C916        C917   1.407       .  A
C916        H921   1.084       .  S
C918        N919   1.432       .  S
N919        H923   1.045       .  S
N919        H924   1.046       .  S
N922        H925   1.045       .  S
N922        H926   1.046       .  S
C927        C932   1.404       .  A
C927        H934   1.084       .  S
C928        C929   1.406       .  A
C929        C930   1.396       .  A
C929        N936   1.433       .  S
C930        H935   1.083       .  S
C931        C932   1.418       .  A
C932        N933   1.437       .  S
N933        H937   1.046       .  S
N933        H938   1.046       .  S
N936        H939   1.045       .  S
N936        H940   1.045       .  S
C941        C946   1.402       .  A
C941        H948   1.084       .  S
C942        C943   1.416       .  A
C943        C944   1.405       .  A
C943        N950   1.432       .  S
C944        H949   1.084       .  S
C945        C946   1.416       .  A
C946        N947   1.438       .  S
N947        H951   1.046       .  S
N947        H952   1.043       .  S
N950        H953   1.046       .  S
N950        H954   1.046       .  S
C955       N1274   1.360       .  A
C955        N960   1.361   1_556  A
C955       C1101   1.489       .  S
N956       C1114   1.360       .  A
N956        C957   1.356       .  A
C957        N958   1.357       .  A
C957       C1021   1.460       .  S
N958       C1118   1.357       .  A
C959       N1276   1.356   1_554  A
C959        N960   1.358       .  A
C959       C1022   1.462       .  S
C961       N1280   1.360       .  A
C961        N966   1.359   1_556  A
C961       C1090   1.485       .  S
N962       C1120   1.361       .  A
N962        C963   1.357       .  A
C963        N964   1.356       .  A
C963       C1044   1.458       .  S
N964       C1124   1.356       .  A
C965       N1282   1.355   1_554  A
C965        N966   1.356       .  A
C965       C1043   1.454       .  S
C967       N1286   1.360       .  A
C967        N972   1.361   1_556  A
C967       C1076   1.488       .  S
N968       C1126   1.358       .  A
N968        C969   1.354       .  A
C969        N970   1.356       .  A
C969       C1033   1.457       .  S
N970       C1130   1.357       .  A
C971       N1288   1.357   1_554  A
C971        N972   1.358       .  A
C971       C1032   1.462       .  S
N973        C978   1.353       .  A
N973       H1005   1.035       .  S
N974       C1458   1.352   1_545  A
N974        C982   1.352       .  A
N975        C980   1.353       .  A
N975       H1006   1.038       .  S
N976       C1460   1.350   1_545  A
N976        C984   1.351       .  A
C977        C985   1.387       .  A
C977        C993   1.416       .  A
C978        C994   1.417       .  A
C978        C986   1.387       .  A
C979        C987   1.387       .  A
C979        C996   1.417       .  A
C980        C995   1.415       .  A
C980        C988   1.387       .  A
C981       N1451   1.352       .  A
C981        C993   1.415       .  A
C981       C1466   1.386       .  A
C982        C996   1.415       .  A
C982        C990   1.386       .  A
C983       N1453   1.351       .  A
C983       C1468   1.387       .  A
C983        C994   1.414       .  A
C984        C992   1.386       .  A
C984        C995   1.412       .  A
C985        H997   1.082       .  S
C986        H998   1.082       .  S
C987        H999   1.082       .  S
C988       H1000   1.082       .  S
C989       C1458   1.386       .  A
C989        C990   1.373   1_565  A
C989       H1478   1.082       .  S
C990       H1002   1.082       .  S
C991       C1460   1.386   1_545  A
C991        C992   1.373       .  A
C991       H1480   1.082   1_545  S
C992       H1004   1.082       .  S
C993       C1104   1.490       .  S
C994       C1087   1.488       .  S
C995       C1062   1.487       .  S
C996       C1073   1.489       .  S
H1001      C1466   1.082       .  S
H1003      C1468   1.082       .  S
C1007      N1326   1.360       .  A
C1007      N1012   1.361   1_556  A
C1007      C1059   1.487       .  S
N1008      C1166   1.360       .  A
N1008      C1009   1.356       .  A
C1009      N1010   1.356       .  A
C1009      C1056   1.460       .  S
N1010      C1170   1.357       .  A
C1011      N1328   1.357       .  A
C1011      N1012   1.358       .  A
C1011      C1057   1.460       .  S
N1013      N1014   1.320       .  A
N1013      N1019   1.316       .  A
N1013     Mn1042   2.198       .  S
N1014      C1021   1.351       .  A
N1015      N1017   1.316       .  A
N1015      N1016   1.322       .  A
N1015     Mn1031   2.210       .  S
N1016      C1022   1.352       .  A
N1017      N1018   1.320       .  A
N1017     Mn1042   2.203       .  S
N1018      C1022   1.351       .  A
N1019      N1020   1.321       .  A
N1019     Mn1031   2.204       .  S
N1020      C1021   1.352       .  A
N1023      N1029   1.316       .  A
N1023      N1024   1.324       .  A
N1023     Mn1053   2.214       .  S
N1024      C1032   1.354       .  A
N1025      N1026   1.319       .  A
N1025      N1027   1.316       .  A
N1025     Mn1031   2.198       .  S
N1026      C1033   1.350       .  A
N1027      N1028   1.321       .  A
N1027     Mn1053   2.200       .  S
N1028      C1033   1.350       .  A
N1029      N1030   1.319       .  A
N1029     Mn1031   2.197       .  S
N1030      C1032   1.349       .  A
Mn1031    Cl1055   2.548       .  S
N1034      N1035   1.319       .  A
N1034      N1040   1.316       .  A
N1034     Mn1042   2.200       .  S
N1035      C1043   1.350       .  A
N1036      N1038   1.316       .  A
N1036      N1037   1.319       .  A
N1036     Mn1054   2.195       .  S
N1037      C1044   1.349       .  A
N1038      N1039   1.322       .  A
N1038     Mn1042   2.207       .  S
N1039      C1044   1.353       .  A
N1040      N1041   1.320       .  A
N1040     Mn1054   2.194       .  S
N1041      C1043   1.350       .  A
Mn1042    Cl1055   2.548       .  S
N1045      N1046   1.319       .  A
N1045      N1051   1.316       .  A
N1045     Mn1053   2.201       .  S
N1046      C1056   1.350       .  A
N1047      N1048   1.321       .  A
N1047      N1049   1.316       .  A
N1047     Mn1054   2.207       .  S
N1048      C1057   1.352       .  A
N1049      N1050   1.320       .  A
N1049     Mn1053   2.198       .  S
N1050      C1057   1.351       .  A
N1051      N1052   1.322       .  A
N1051     Mn1054   2.204       .  S
N1052      C1056   1.352       .  A
Mn1053    Cl1055   2.549       .  S
Mn1054    Cl1055   2.549       .  S
C1058      C1059   1.407   1_554  A
C1058      C1063   1.400       .  A
C1058      H1065   1.084       .  S
C1059      C1378   1.415       .  A
C1060      C1218   1.415       .  A
C1060      C1061   1.402       .  A
C1060      N1067   1.432       .  S
C1061      C1062   1.399       .  A
C1061      H1066   1.084       .  S
C1062      C1222   1.411       .  A
C1063      C1380   1.412   1_554  A
C1063      N1064   1.433       .  S
N1064      H1068   1.045       .  S
N1064      H1069   1.046       .  S
N1067      H1070   1.046       .  S
N1067      H1071   1.046       .  S
C1072      C1073   1.399       .  A
C1072      C1077   1.405       .  A
C1072      H1079   1.084       .  S
C1073      C1233   1.405       .  A
C1074      C1391   1.405   1_554  A
C1074      C1075   1.402       .  A
C1074      N1081   1.432       .  S
C1075      C1076   1.407   1_554  A
C1075      H1080   1.083       .  S
C1076      C1395   1.416       .  A
C1077      C1235   1.419       .  A
C1077      N1078   1.433       .  S
N1078      H1082   1.046       .  S
N1078      H1083   1.046       .  S
N1081      H1084   1.045       .  S
N1081      H1085   1.046       .  S
C1086      C1405   1.402   1_554  A
C1086      C1091   1.404       .  A
C1086      H1093   1.084       .  S
C1087      C1245   1.401       .  A
C1087      C1088   1.415       .  A
C1088      C1089   1.402       .  A
C1088      N1095   1.439       .  S
C1089      C1249   1.408       .  A
C1089      H1094   1.084       .  S
C1090      C1407   1.406       .  A
C1090      C1091   1.415   1_556  A
C1091      N1092   1.438       .  S
N1092      H1096   1.046       .  S
N1092      H1097   1.046       .  S
N1095      H1098   1.043       .  S
N1095      H1099   1.046       .  S
C1100      C1260   1.407       .  A
C1100      C1105   1.402       .  A
C1100      H1107   1.084       .  S
C1101      C1418   1.407       .  A
C1101      C1102   1.414   1_556  A
C1102      C1103   1.403       .  A
C1102      N1109   1.432       .  S
C1103      C1422   1.401   1_554  A
C1103      H1108   1.084       .  S
C1104      C1262   1.402       .  A
C1104      C1105   1.416       .  A
C1105      N1106   1.439       .  S
N1106      H1110   1.046       .  S
N1106      H1111   1.043       .  S
N1109      H1112   1.046       .  S
N1109      H1113   1.046       .  S
C1114      N1119   1.362       .  A
C1114      C1260   1.489       .  S
N1115      C1273   1.361       .  A
N1115      C1116   1.357       .  A
C1116      N1117   1.356       .  A
C1116      C1180   1.460       .  S
N1117      C1277   1.356       .  A
C1118      N1119   1.359       .  A
C1118      C1181   1.463       .  S
C1120      N1125   1.361       .  A
C1120      C1249   1.489       .  S
N1121      C1279   1.360       .  A
N1121      C1122   1.356       .  A
C1122      N1123   1.358       .  A
C1122      C1203   1.461       .  S
N1123      C1283   1.358       .  A
C1124      N1125   1.357       .  A
C1124      C1202   1.461       .  S
C1126      N1131   1.364       .  A
C1126      C1235   1.493       .  S
N1127      C1285   1.359       .  A
N1127      C1128   1.355       .  A
C1128      N1129   1.355       .  A
C1128      C1192   1.459       .  S
N1129      C1289   1.357       .  A
C1130      N1131   1.361       .  A
C1130      C1191   1.465       .  S
N1132      C1137   1.353       .  A
N1132      H1164   1.035       .  S
N1133      C1617   1.352   1_545  A
N1133      C1141   1.352       .  A
N1134      C1139   1.354       .  A
N1134      H1165   1.036       .  S
N1135      C1619   1.351   1_545  A
N1135      C1143   1.352       .  A
C1136      C1144   1.387       .  A
C1136      C1152   1.414       .  A
C1137      C1153   1.414       .  A
C1137      C1145   1.387       .  A
C1138      C1146   1.388       .  A
C1138      C1155   1.417       .  A
C1139      C1154   1.416       .  A
C1139      C1147   1.387       .  A
C1140      N1610   1.351       .  A
C1140      C1152   1.411       .  A
C1140      C1625   1.386       .  A
C1141      C1155   1.416       .  A
C1141      C1149   1.387       .  A
C1142      N1612   1.351       .  A
C1142      C1627   1.386       .  A
C1142      C1153   1.413       .  A
C1143      C1151   1.386       .  A
C1143      C1154   1.414       .  A
C1144      H1156   1.082       .  S
C1145      H1157   1.082       .  S
C1146      H1158   1.082       .  S
C1147      H1159   1.082       .  S
C1148      C1617   1.386       .  A
C1148      C1149   1.373   1_565  A
C1148      H1637   1.082       .  S
C1149      H1161   1.082       .  S
C1150      C1619   1.387   1_545  A
C1150      C1151   1.374       .  A
C1150      H1639   1.082   1_545  S
C1151      H1163   1.082       .  S
C1152      C1263   1.484       .  S
C1153      C1246   1.485       .  S
C1154      C1221   1.489       .  S
C1155      C1232   1.486       .  S
H1160      C1625   1.082       .  S
H1162      C1627   1.082       .  S
C1166      N1171   1.361       .  A
C1166      C1218   1.489       .  S
N1167      C1325   1.360       .  A
N1167      C1168   1.356       .  A
C1168      N1169   1.355       .  A
C1168      C1215   1.461       .  S
N1169      C1329   1.357       .  A
C1170      N1171   1.358       .  A
C1170      C1216   1.459       .  S
N1172      N1173   1.320       .  A
N1172      N1178   1.316       .  A
N1172     Mn1201   2.196       .  S
N1173      C1180   1.350       .  A
N1174      N1176   1.317       .  A
N1174      N1175   1.322       .  A
N1174     Mn1190   2.212       .  S
N1175      C1181   1.352       .  A
N1176      N1177   1.321       .  A
N1176     Mn1201   2.203       .  S
N1177      C1181   1.351       .  A
N1178      N1179   1.321       .  A
N1178     Mn1190   2.207       .  S
N1179      C1180   1.352       .  A
N1182      N1188   1.317       .  A
N1182      N1183   1.323       .  A
N1182     Mn1212   2.215       .  S
N1183      C1191   1.354       .  A
N1184      N1185   1.321       .  A
N1184      N1186   1.316       .  A
N1184     Mn1190   2.203       .  S
N1185      C1192   1.352       .  A
N1186      N1187   1.321       .  A
N1186     Mn1212   2.201       .  S
N1187      C1192   1.350       .  A
N1188      N1189   1.320       .  A
N1188     Mn1190   2.203       .  S
N1189      C1191   1.351       .  A
Mn1190    Cl1214   2.550       .  S
N1193      N1194   1.321       .  A
N1193      N1199   1.316       .  A
N1193     Mn1201   2.206       .  S
N1194      C1202   1.351       .  A
N1195      N1197   1.316       .  A
N1195      N1196   1.319       .  A
N1195     Mn1213   2.197       .  S
N1196      C1203   1.350       .  A
N1197      N1198   1.323       .  A
N1197     Mn1201   2.210       .  S
N1198      C1203   1.353       .  A
N1199      N1200   1.321       .  A
N1199     Mn1213   2.204       .  S
N1200      C1202   1.352       .  A
Mn1201    Cl1214   2.549       .  S
N1204      N1205   1.320       .  A
N1204      N1210   1.316       .  A
N1204     Mn1212   2.202       .  S
N1205      C1215   1.350       .  A
N1206      N1207   1.321       .  A
N1206      N1208   1.316       .  A
N1206     Mn1213   2.204       .  S
N1207      C1216   1.351       .  A
N1208      N1209   1.320       .  A
N1208     Mn1212   2.197       .  S
N1209      C1216   1.350       .  A
N1210      N1211   1.322       .  A
N1210     Mn1213   2.207       .  S
N1211      C1215   1.352       .  A
Mn1212    Cl1214   2.549       .  S
Mn1213    Cl1214   2.550       .  S
C1217      C1218   1.408       .  A
C1217      C1222   1.401       .  A
C1217      H1224   1.083       .  S
C1219      C1377   1.415       .  A
C1219      C1220   1.403       .  A
C1219      N1226   1.432       .  S
C1220      C1221   1.400       .  A
C1220      H1225   1.084       .  S
C1221      C1381   1.412       .  A
C1222      N1223   1.432       .  S
N1223      H1227   1.045       .  S
N1223      H1228   1.045       .  S
N1226      H1229   1.046       .  S
N1226      H1230   1.045       .  S
C1231      C1232   1.399       .  A
C1231      C1236   1.403       .  A
C1231      H1238   1.084       .  S
C1232      C1392   1.405       .  A
C1233      C1234   1.404       .  A
C1233      N1240   1.432       .  S
C1234      C1235   1.407       .  A
C1234      H1239   1.083       .  S
C1236      C1394   1.417       .  A
C1236      N1237   1.432       .  S
N1237      H1241   1.046       .  S
N1237      H1242   1.046       .  S
N1240      H1243   1.045       .  S
N1240      H1244   1.045       .  S
C1245      C1250   1.405       .  A
C1245      H1252   1.084       .  S
C1246      C1404   1.399       .  A
C1246      C1247   1.408       .  A
C1247      C1248   1.399       .  A
C1247      N1254   1.433       .  S
C1248      C1408   1.409       .  A
C1248      H1253   1.083       .  S
C1249      C1250   1.416       .  A
C1250      N1251   1.438       .  S
N1251      H1255   1.046       .  S
N1251      H1256   1.046       .  S
N1254      H1257   1.046       .  S
N1254      H1258   1.045       .  S
C1259      C1419   1.410       .  A
C1259      C1264   1.399       .  A
C1259      H1266   1.083       .  S
C1260      C1261   1.413       .  A
C1261      C1262   1.404       .  A
C1261      N1268   1.432       .  S
C1262      H1267   1.084       .  S
C1263      C1421   1.399       .  A
C1263      C1264   1.408       .  A
C1264      N1265   1.433       .  S
N1265      H1269   1.045       .  S
N1265      H1270   1.046       .  S
N1268      H1271   1.046       .  S
N1268      H1272   1.046       .  S
C1273      N1278   1.361       .  A
C1273      C1419   1.492       .  S
N1274      C1275   1.356       .  A
C1275      N1276   1.356       .  A
C1275      C1339   1.459       .  S
C1277      N1278   1.358       .  A
C1277      C1340   1.462       .  S
C1279      N1284   1.361       .  A
C1279      C1408   1.491       .  S
N1280      C1281   1.356       .  A
C1281      N1282   1.355       .  A
C1281      C1362   1.456       .  S
C1283      N1284   1.358       .  A
C1283      C1361   1.464       .  S
C1285      N1290   1.362       .  A
C1285      C1394   1.490       .  S
N1286      C1287   1.357       .  A
C1287      N1288   1.357       .  A
C1287      C1351   1.461       .  S
C1289      N1290   1.360       .  A
C1289      C1350   1.461       .  S
N1291      C1296   1.353   1_556  A
N1291      H1323   1.034       .  S
N1292      C1776   1.352   1_545  A
N1292      C1300   1.352       .  A
N1293      C1298   1.353   1_556  A
N1293      H1324   1.036       .  S
N1294      C1778   1.349   1_545  A
N1294      C1302   1.351       .  A
C1295      C1303   1.388       .  A
C1295      C1311   1.416   1_554  A
C1296      C1312   1.415   1_554  A
C1296      C1304   1.386       .  A
C1297      C1305   1.388       .  A
C1297      C1314   1.416   1_554  A
C1298      C1313   1.414   1_554  A
C1298      C1306   1.386       .  A
C1299      N1769   1.352       .  A
C1299      C1311   1.415       .  A
C1299      C1784   1.386       .  A
C1300      C1314   1.416       .  A
C1300      C1308   1.387       .  A
C1301      N1771   1.351   1_556  A
C1301      C1786   1.386       .  A
C1301      C1312   1.413       .  A
C1302      C1310   1.385       .  A
C1302      C1313   1.411       .  A
C1303      H1315   1.082       .  S
C1304      H1316   1.082       .  S
C1305      H1317   1.082       .  S
C1306      H1318   1.082       .  S
C1307      C1776   1.386       .  A
C1307      C1308   1.373   1_565  A
C1307      H1796   1.082       .  S
C1308      H1320   1.082       .  S
C1309      C1778   1.387   1_545  A
C1309      C1310   1.372       .  A
C1309      H1798   1.082   1_545  S
C1310      H1322   1.082       .  S
C1311      C1422   1.488       .  S
C1312      C1405   1.488       .  S
C1313      C1380   1.487       .  S
C1314      C1391   1.487       .  S
H1319      C1784   1.082       .  S
H1321      C1786   1.082       .  S
C1325      N1330   1.362       .  A
C1325      C1377   1.489       .  S
N1326      C1327   1.356       .  A
C1327      N1328   1.356   1_556  A
C1327      C1374   1.460       .  S
C1329      N1330   1.359       .  A
C1329      C1375   1.460       .  S
N1331      N1332   1.321       .  A
N1331      N1337   1.316       .  A
N1331     Mn1360   2.202       .  S
N1332      C1339   1.351       .  A
N1333      N1335   1.317       .  A
N1333      N1334   1.322       .  A
N1333     Mn1349   2.215       .  S
N1334      C1340   1.353       .  A
N1335      N1336   1.320       .  A
N1335     Mn1360   2.198       .  S
N1336      C1340   1.350       .  A
N1337      N1338   1.320       .  A
N1337     Mn1349   2.199       .  S
N1338      C1339   1.350       .  A
N1341      N1347   1.316       .  A
N1341      N1342   1.323       .  A
N1341     Mn1371   2.211       .  S
N1342      C1350   1.353       .  A
N1343      N1344   1.321       .  A
N1343      N1345   1.316       .  A
N1343     Mn1349   2.207       .  S
N1344      C1351   1.352       .  A
N1345      N1346   1.321       .  A
N1345     Mn1371   2.203       .  S
N1346      C1351   1.351       .  A
N1347      N1348   1.319       .  A
N1347     Mn1349   2.197       .  S
N1348      C1350   1.350       .  A
Mn1349    Cl1373   2.548       .  S
N1352      N1353   1.322       .  A
N1352      N1358   1.316       .  A
N1352     Mn1360   2.208       .  S
N1353      C1361   1.352       .  A
N1354      N1356   1.316       .  A
N1354      N1355   1.318       .  A
N1354     Mn1372   2.193       .  S
N1355      C1362   1.348       .  A
N1356      N1357   1.322       .  A
N1356     Mn1360   2.205       .  S
N1357      C1362   1.352       .  A
N1358      N1359   1.321       .  A
N1358     Mn1372   2.206       .  S
N1359      C1361   1.352       .  A
Mn1360    Cl1373   2.551       .  S
N1363      N1364   1.320       .  A
N1363      N1369   1.316       .  A
N1363     Mn1371   2.198       .  S
N1364      C1374   1.350       .  A
N1365      N1366   1.321       .  A
N1365      N1367   1.316       .  A
N1365     Mn1372   2.204       .  S
N1366      C1375   1.352       .  A
N1367      N1368   1.320       .  A
N1367     Mn1371   2.200       .  S
N1368      C1375   1.351       .  A
N1369      N1370   1.322       .  A
N1369     Mn1372   2.209       .  S
N1370      C1374   1.352       .  A
Mn1371    Cl1373   2.550       .  S
Mn1372    Cl1373   2.548       .  S
C1376      C1377   1.408       .  A
C1376      C1381   1.401       .  A
C1376      H1383   1.083       .  S
C1378      C1379   1.402       .  A
C1378      N1385   1.432       .  S
C1379      C1380   1.400       .  A
C1379      H1384   1.084       .  S
C1381      N1382   1.432       .  S
N1382      H1386   1.045       .  S
N1382      H1387   1.046       .  S
N1385      H1388   1.046       .  S
N1385      H1389   1.046       .  S
C1390      C1391   1.401       .  A
C1390      C1395   1.405       .  A
C1390      H1397   1.084       .  S
C1392      C1393   1.404       .  A
C1392      N1399   1.432       .  S
C1393      C1394   1.408       .  A
C1393      H1398   1.083       .  S
C1395      N1396   1.432       .  S
N1396      H1400   1.046       .  S
N1396      H1401   1.046       .  S
N1399      H1402   1.045       .  S
N1399      H1403   1.045       .  S
C1404      C1409   1.406       .  A
C1404      H1411   1.084       .  S
C1405      C1406   1.415       .  A
C1406      C1407   1.400       .  A
C1406      N1413   1.438       .  S
C1407      H1412   1.084       .  S
C1408      C1409   1.418       .  A
C1409      N1410   1.438       .  S
N1410      H1414   1.046       .  S
N1410      H1415   1.046       .  S
N1413      H1416   1.043       .  S
N1413      H1417   1.046       .  S
C1418      C1423   1.401       .  A
C1418      H1425   1.084       .  S
C1419      C1420   1.417       .  A
C1420      C1421   1.403       .  A
C1420      N1427   1.432       .  S
C1421      H1426   1.084       .  S
C1422      C1423   1.415       .  A
C1423      N1424   1.439       .  S
N1424      H1428   1.045       .  S
N1424      H1429   1.043       .  S
N1427      H1430   1.046       .  S
N1427      H1431   1.046       .  S
C1432      N1751   1.360       .  A
C1432      N1437   1.361   1_556  A
C1432      C1578   1.492       .  S
N1433      C1591   1.361       .  A
N1433      C1434   1.357       .  A
C1434      N1435   1.356       .  A
C1434      C1498   1.459       .  S
N1435      C1595   1.356       .  A
C1436      N1753   1.357   1_554  A
C1436      N1437   1.358       .  A
C1436      C1499   1.463       .  S
C1438      N1757   1.361       .  A
C1438      N1443   1.359   1_556  A
C1438      C1567   1.489       .  S
N1439      C1597   1.360       .  A
N1439      C1440   1.356       .  A
C1440      N1441   1.357       .  A
C1440      C1521   1.460       .  S
N1441      C1601   1.357       .  A
C1442      N1759   1.355   1_554  A
C1442      N1443   1.355       .  A
C1442      C1520   1.457       .  S
C1444      N1763   1.359       .  A
C1444      N1449   1.362   1_556  A
C1444      C1553   1.489       .  S
N1445      C1603   1.360       .  A
N1445      C1446   1.357       .  A
C1446      N1447   1.356       .  A
C1446      C1510   1.461       .  S
N1447      C1607   1.357       .  A
C1448      N1765   1.358   1_554  A
C1448      N1449   1.360       .  A
C1448      C1509   1.462       .  S
N1450      C1455   1.353       .  A
N1450      H1482   1.038       .  S
N1451      C1459   1.352       .  A
N1452      C1457   1.353       .  A
N1452      H1483   1.034       .  S
N1453      C1461   1.352       .  A
C1454      C1462   1.388       .  A
C1454      C1470   1.416       .  A
C1455      C1471   1.415       .  A
C1455      C1463   1.387       .  A
C1456      C1464   1.387       .  A
C1456      C1473   1.420       .  A
C1457      C1472   1.416       .  A
C1457      C1465   1.387       .  A
C1458      C1470   1.415       .  A
C1459      C1473   1.416       .  A
C1459      C1467   1.387       .  A
C1460      C1471   1.412       .  A
C1461      C1469   1.386       .  A
C1461      C1472   1.414       .  A
C1462      H1474   1.082       .  S
C1463      H1475   1.082       .  S
C1464      H1476   1.082       .  S
C1465      H1477   1.082       .  S
C1466      C1467   1.373       .  A
C1467      H1479   1.082       .  S
C1468      C1469   1.373       .  A
C1469      H1481   1.082       .  S
C1470      C1581   1.486       .  S
C1471      C1564   1.487       .  S
C1472      C1539   1.488       .  S
C1473      C1550   1.491       .  S
C1484      N1803   1.359       .  A
C1484      N1489   1.359   1_556  A
C1484      C1536   1.482       .  S
N1485      C1643   1.360       .  A
N1485      C1486   1.356       .  A
C1486      N1487   1.356       .  A
C1486      C1533   1.460       .  S
N1487      C1647   1.357       .  A
C1488      N1805   1.356   1_554  A
C1488      N1489   1.355       .  A
C1488      C1534   1.455       .  S
N1490      N1491   1.320       .  A
N1490      N1496   1.316       .  A
N1490     Mn1519   2.196       .  S
N1491      C1498   1.350       .  A
N1492      N1494   1.316       .  A
N1492      N1493   1.322       .  A
N1492     Mn1508   2.211       .  S
N1493      C1499   1.352       .  A
N1494      N1495   1.321       .  A
N1494     Mn1519   2.203       .  S
N1495      C1499   1.351       .  A
N1496      N1497   1.321       .  A
N1496     Mn1508   2.203       .  S
N1497      C1498   1.351       .  A
N1500      N1506   1.316       .  A
N1500      N1501   1.323       .  A
N1500     Mn1530   2.210       .  S
N1501      C1509   1.353       .  A
N1502      N1503   1.320       .  A
N1502      N1504   1.316       .  A
N1502     Mn1508   2.200       .  S
N1503      C1510   1.350       .  A
N1504      N1505   1.322       .  A
N1504     Mn1530   2.205       .  S
N1505      C1510   1.352       .  A
N1506      N1507   1.319       .  A
N1506     Mn1508   2.196       .  S
N1507      C1509   1.350       .  A
Mn1508    Cl1532   2.547       .  S
N1511      N1512   1.320       .  A
N1511      N1517   1.316       .  A
N1511     Mn1519   2.201       .  S
N1512      C1520   1.350       .  A
N1513      N1515   1.316       .  A
N1513      N1514   1.320       .  A
N1513     Mn1531   2.199       .  S
N1514      C1521   1.350       .  A
N1515      N1516   1.322       .  A
N1515     Mn1519   2.208       .  S
N1516      C1521   1.352       .  A
N1517      N1518   1.320       .  A
N1517     Mn1531   2.199       .  S
N1518      C1520   1.351       .  A
Mn1519    Cl1532   2.548       .  S
N1522      N1523   1.319       .  A
N1522      N1528   1.316       .  A
N1522     Mn1530   2.198       .  S
N1523      C1533   1.350       .  A
N1524      N1525   1.322       .  A
N1524      N1526   1.316       .  A
N1524     Mn1531   2.204       .  S
N1525      C1534   1.352       .  A
N1526      N1527   1.318       .  A
N1526     Mn1530   2.194       .  S
N1527      C1534   1.349       .  A
N1528      N1529   1.322       .  A
N1528     Mn1531   2.208       .  S
N1529      C1533   1.352       .  A
Mn1530    Cl1532   2.548       .  S
Mn1531    Cl1532   2.550       .  S
C1535      C1536   1.408   1_554  A
C1535      C1540   1.398       .  A
C1535      H1542   1.084       .  S
C1536      C1855   1.413       .  A
C1537      C1695   1.413       .  A
C1537      C1538   1.401       .  A
C1537      N1544   1.432       .  S
C1538      C1539   1.401       .  A
C1538      H1543   1.084       .  S
C1539      C1699   1.412       .  A
C1540      C1857   1.410       .  A
C1540      N1541   1.433       .  S
N1541      H1545   1.045       .  S
N1541      H1546   1.046       .  S
N1544      H1547   1.046       .  S
N1544      H1548   1.046       .  S
C1549      C1550   1.400       .  A
C1549      C1554   1.405       .  A
C1549      H1556   1.084       .  S
C1550      C1710   1.407       .  A
C1551      C1868   1.407   1_554  A
C1551      C1552   1.406       .  A
C1551      N1558   1.432       .  S
C1552      C1553   1.407   1_554  A
C1552      H1557   1.083       .  S
C1553      C1872   1.416       .  A
C1554      C1712   1.416       .  A
C1554      N1555   1.432       .  S
N1555      H1559   1.046       .  S
N1555      H1560   1.046       .  S
N1558      H1561   1.045       .  S
N1558      H1562   1.045       .  S
C1563      C1882   1.398   1_554  A
C1563      C1568   1.404       .  A
C1563      H1570   1.084       .  S
C1564      C1722   1.401       .  A
C1564      C1565   1.409       .  A
C1565      C1566   1.398       .  A
C1565      N1572   1.433       .  S
C1566      C1726   1.409       .  A
C1566      H1571   1.083       .  S
C1567      C1884   1.409       .  A
C1567      C1568   1.420   1_556  A
C1568      N1569   1.438       .  S
N1569      H1573   1.046       .  S
N1569      H1574   1.046       .  S
N1572      H1575   1.046       .  S
N1572      H1576   1.045       .  S
C1577      C1737   1.410       .  A
C1577      C1582   1.400       .  A
C1577      H1584   1.083       .  S
C1578      C1895   1.409       .  A
C1578      C1579   1.415   1_556  A
C1579      C1580   1.403       .  A
C1579      N1586   1.432       .  S
C1580      C1899   1.400   1_554  A
C1580      H1585   1.084       .  S
C1581      C1739   1.399       .  A
C1581      C1582   1.409       .  A
C1582      N1583   1.432       .  S
N1583      H1587   1.045       .  S
N1583      H1588   1.046       .  S
N1586      H1589   1.046       .  S
N1586      H1590   1.046       .  S
C1591      N1596   1.360       .  A
C1591      C1737   1.493       .  S
N1592      C1750   1.360       .  A
N1592      C1593   1.355       .  A
C1593      N1594   1.356       .  A
C1593      C1657   1.457       .  S
N1594      C1754   1.356       .  A
C1595      N1596   1.356       .  A
C1595      C1658   1.460       .  S
C1597      N1602   1.361       .  A
C1597      C1726   1.490       .  S
N1598      C1756   1.360       .  A
N1598      C1599   1.356       .  A
C1599      N1600   1.356       .  A
C1599      C1680   1.457       .  S
N1600      C1760   1.356       .  A
C1601      N1602   1.358       .  A
C1601      C1679   1.462       .  S
C1603      N1608   1.362       .  A
C1603      C1712   1.490       .  S
N1604      C1762   1.360       .  A
N1604      C1605   1.356       .  A
C1605      N1606   1.356       .  A
C1605      C1669   1.461       .  S
N1606      C1766   1.357       .  A
C1607      N1608   1.359       .  A
C1607      C1668   1.462       .  S
N1609      C1614   1.353       .  A
N1609      H1641   1.037       .  S
N1610      C1618   1.350       .  A
N1611      C1616   1.353       .  A
N1611      H1642   1.035       .  S
N1612      C1620   1.351       .  A
C1613      C1621   1.387       .  A
C1613      C1629   1.416       .  A
C1614      C1630   1.414       .  A
C1614      C1622   1.387       .  A
C1615      C1623   1.387       .  A
C1615      C1632   1.417       .  A
C1616      C1631   1.416       .  A
C1616      C1624   1.387       .  A
C1617      C1629   1.415       .  A
C1618      C1632   1.413       .  A
C1618      C1626   1.387       .  A
C1619      C1630   1.414       .  A
C1620      C1628   1.386       .  A
C1620      C1631   1.413       .  A
C1621      H1633   1.082       .  S
C1622      H1634   1.082       .  S
C1623      H1635   1.082       .  S
C1624      H1636   1.082       .  S
C1625      C1626   1.372       .  A
C1626      H1638   1.082       .  S
C1627      C1628   1.373       .  A
C1628      H1640   1.082       .  S
C1629      C1740   1.489       .  S
C1630      C1723   1.486       .  S
C1631      C1698   1.486       .  S
C1632      C1709   1.487       .  S
C1643      N1648   1.360       .  A
C1643      C1695   1.485       .  S
N1644      C1802   1.361       .  A
N1644      C1645   1.357       .  A
C1645      N1646   1.356       .  A
C1645      C1692   1.462       .  S
N1646      C1806   1.357       .  A
C1647      N1648   1.357       .  A
C1647      C1693   1.459       .  S
N1649      N1650   1.319       .  A
N1649      N1655   1.316       .  A
N1649     Mn1678   2.194       .  S
N1650      C1657   1.350       .  A
N1651      N1653   1.317       .  A
N1651      N1652   1.322       .  A
N1651     Mn1667   2.209       .  S
N1652      C1658   1.352       .  A
N1653      N1654   1.320       .  A
N1653     Mn1678   2.200       .  S
N1654      C1658   1.350       .  A
N1655      N1656   1.321       .  A
N1655     Mn1667   2.204       .  S
N1656      C1657   1.351       .  A
N1659      N1665   1.316       .  A
N1659      N1660   1.322       .  A
N1659     Mn1689   2.209       .  S
N1660      C1668   1.352       .  A
N1661      N1662   1.321       .  A
N1661      N1663   1.316       .  A
N1661     Mn1667   2.203       .  S
N1662      C1669   1.351       .  A
N1663      N1664   1.321       .  A
N1663     Mn1689   2.208       .  S
N1664      C1669   1.351       .  A
N1665      N1666   1.320       .  A
N1665     Mn1667   2.199       .  S
N1666      C1668   1.351       .  A
Mn1667    Cl1691   2.550       .  S
N1670      N1671   1.322       .  A
N1670      N1676   1.316       .  A
N1670     Mn1678   2.205       .  S
N1671      C1679   1.352       .  A
N1672      N1674   1.316       .  A
N1672      N1673   1.318       .  A
N1672     Mn1690   2.192       .  S
N1673      C1680   1.349       .  A
N1674      N1675   1.322       .  A
N1674     Mn1678   2.208       .  S
N1675      C1680   1.353       .  A
N1676      N1677   1.321       .  A
N1676     Mn1690   2.203       .  S
N1677      C1679   1.351       .  A
Mn1678    Cl1691   2.548       .  S
N1681      N1682   1.320       .  A
N1681      N1687   1.316       .  A
N1681     Mn1689   2.201       .  S
N1682      C1692   1.350       .  A
N1683      N1684   1.321       .  A
N1683      N1685   1.316       .  A
N1683     Mn1690   2.202       .  S
N1684      C1693   1.351       .  A
N1685      N1686   1.320       .  A
N1685     Mn1689   2.202       .  S
N1686      C1693   1.351       .  A
N1687      N1688   1.323       .  A
N1687     Mn1690   2.209       .  S
N1688      C1692   1.352       .  A
Mn1689    Cl1691   2.547       .  S
Mn1690    Cl1691   2.548       .  S
C1694      C1695   1.407       .  A
C1694      C1699   1.400       .  A
C1694      H1701   1.084       .  S
C1696      C1854   1.414       .  A
C1696      C1697   1.402       .  A
C1696      N1703   1.432       .  S
C1697      C1698   1.399       .  A
C1697      H1702   1.084       .  S
C1698      C1858   1.411       .  A
C1699      N1700   1.433       .  S
N1700      H1704   1.044       .  S
N1700      H1705   1.045       .  S
N1703      H1706   1.046       .  S
N1703      H1707   1.046       .  S
C1708      C1709   1.399       .  A
C1708      C1713   1.404       .  A
C1708      H1715   1.084       .  S
C1709      C1869   1.406       .  A
C1710      C1711   1.405       .  A
C1710      N1717   1.432       .  S
C1711      C1712   1.407       .  A
C1711      H1716   1.084       .  S
C1713      C1871   1.417       .  A
C1713      N1714   1.432       .  S
N1714      H1718   1.046       .  S
N1714      H1719   1.046       .  S
N1717      H1720   1.045       .  S
N1717      H1721   1.046       .  S
C1722      C1727   1.407       .  A
C1722      H1729   1.084       .  S
C1723      C1881   1.400       .  A
C1723      C1724   1.409       .  A
C1724      C1725   1.399       .  A
C1724      N1731   1.433       .  S
C1725      C1885   1.408       .  A
C1725      H1730   1.084       .  S
C1726      C1727   1.418       .  A
C1727      N1728   1.438       .  S
N1728      H1732   1.046       .  S
N1728      H1733   1.046       .  S
N1731      H1734   1.046       .  S
N1731      H1735   1.045       .  S
C1736      C1896   1.409       .  A
C1736      C1741   1.399       .  A
C1736      H1743   1.083       .  S
C1737      C1738   1.418       .  A
C1738      C1739   1.403       .  A
C1738      N1745   1.432       .  S
C1739      H1744   1.084       .  S
C1740      C1898   1.401       .  A
C1740      C1741   1.410       .  A
C1741      N1742   1.433       .  S
N1742      H1746   1.045       .  S
N1742      H1747   1.046       .  S
N1745      H1748   1.046       .  S
N1745      H1749   1.046       .  S
C1750      N1755   1.362       .  A
C1750      C1896   1.491       .  S
N1751      C1752   1.357       .  A
C1752      N1753   1.357       .  A
C1752      C1816   1.459       .  S
C1754      N1755   1.359       .  A
C1754      C1817   1.463       .  S
C1756      N1761   1.360       .  A
C1756      C1885   1.488       .  S
N1757      C1758   1.357       .  A
C1758      N1759   1.355       .  A
C1758      C1839   1.457       .  S
C1760      N1761   1.357       .  A
C1760      C1838   1.459       .  S
C1762      N1767   1.362       .  A
C1762      C1871   1.491       .  S
N1763      C1764   1.355       .  A
C1764      N1765   1.356       .  A
C1764      C1828   1.462       .  S
C1766      N1767   1.359       .  A
C1766      C1827   1.462       .  S
N1768      C1773   1.351       .  A
N1768      H1800   1.036       .  S
N1769      C1777   1.352       .  A
N1770      C1775   1.351   1_556  A
N1770      H1801   1.033       .  S
N1771      C1779   1.350   1_554  A
C1772      C1780   1.388   1_556  A
C1772      C1788   1.417       .  A
C1773      C1789   1.413       .  A
C1773      C1781   1.387   1_556  A
C1774      C1782   1.387   1_556  A
C1774      C1791   1.418       .  A
C1775      C1790   1.415       .  A
C1775      C1783   1.388       .  A
C1776      C1788   1.415       .  A
C1777      C1791   1.416       .  A
C1777      C1785   1.387       .  A
C1778      C1789   1.411       .  A
C1779      C1787   1.387       .  A
C1779      C1790   1.413   1_556  A
C1780      H1792   1.082       .  S
C1781      H1793   1.082       .  S
C1782      H1794   1.082       .  S
C1783      H1795   1.083       .  S
C1784      C1785   1.374       .  A
C1785      H1797   1.082       .  S
C1786      C1787   1.371       .  A
C1787      H1799   1.082       .  S
C1788      C1899   1.487       .  S
C1789      C1882   1.479       .  S
C1790      C1857   1.480       .  S
C1791      C1868   1.491       .  S
C1802      N1807   1.360       .  A
C1802      C1854   1.488       .  S
N1803      C1804   1.356       .  A
C1804      N1805   1.356       .  A
C1804      C1851   1.457       .  S
C1806      N1807   1.357       .  A
C1806      C1852   1.459       .  S
N1808      N1809   1.319       .  A
N1808      N1814   1.316       .  A
N1808     Mn1837   2.198       .  S
N1809      C1816   1.350       .  A
N1810      N1812   1.317       .  A
N1810      N1811   1.323       .  A
N1810     Mn1826   2.217       .  S
N1811      C1817   1.354       .  A
N1812      N1813   1.320       .  A
N1812     Mn1837   2.196       .  S
N1813      C1817   1.350       .  A
N1814      N1815   1.322       .  A
N1814     Mn1826   2.204       .  S
N1815      C1816   1.352       .  A
N1818      N1824   1.316       .  A
N1818      N1819   1.323       .  A
N1818     Mn1848   2.211       .  S
N1819      C1827   1.353       .  A
N1820      N1821   1.321       .  A
N1820      N1822   1.316       .  A
N1820     Mn1826   2.208       .  S
N1821      C1828   1.352       .  A
N1822      N1823   1.322       .  A
N1822     Mn1848   2.205       .  S
N1823      C1828   1.351       .  A
N1824      N1825   1.319       .  A
N1824     Mn1826   2.198       .  S
N1825      C1827   1.350       .  A
Mn1826    Cl1850   2.550       .  S
N1829      N1830   1.321       .  A
N1829      N1835   1.316       .  A
N1829     Mn1837   2.204       .  S
N1830      C1838   1.351       .  A
N1831      N1833   1.316       .  A
N1831      N1832   1.319       .  A
N1831     Mn1849   2.200       .  S
N1832      C1839   1.350       .  A
N1833      N1834   1.321       .  A
N1833     Mn1837   2.201       .  S
N1834      C1839   1.351       .  A
N1835      N1836   1.320       .  A
N1835     Mn1849   2.198       .  S
N1836      C1838   1.351       .  A
Mn1837    Cl1850   2.549       .  S
N1840      N1841   1.320       .  A
N1840      N1846   1.316       .  A
N1840     Mn1848   2.197       .  S
N1841      C1851   1.350       .  A
N1842      N1843   1.321       .  A
N1842      N1844   1.317       .  A
N1842     Mn1849   2.207       .  S
N1843      C1852   1.351       .  A
N1844      N1845   1.320       .  A
N1844     Mn1848   2.198       .  S
N1845      C1852   1.350       .  A
N1846      N1847   1.321       .  A
N1846     Mn1849   2.203       .  S
N1847      C1851   1.351       .  A
Mn1848    Cl1850   2.550       .  S
Mn1849    Cl1850   2.548       .  S
C1853      C1854   1.409       .  A
C1853      C1858   1.401       .  A
C1853      H1860   1.083       .  S
C1855      C1856   1.399       .  A
C1855      N1862   1.432       .  S
C1856      C1857   1.399   1_556  A
C1856      H1861   1.084       .  S
C1858      N1859   1.433       .  S
N1859      H1863   1.045       .  S
N1859      H1864   1.045       .  S
N1862      H1865   1.046       .  S
N1862      H1866   1.046       .  S
C1867      C1868   1.400       .  A
C1867      C1872   1.404       .  A
C1867      H1874   1.084       .  S
C1869      C1870   1.404       .  A
C1869      N1876   1.432       .  S
C1870      C1871   1.408       .  A
C1870      H1875   1.083       .  S
C1872      N1873   1.432       .  S
N1873      H1877   1.046       .  S
N1873      H1878   1.046       .  S
N1876      H1879   1.045       .  S
N1876      H1880   1.046       .  S
C1881      C1886   1.406       .  A
C1881      H1888   1.084       .  S
C1882      C1883   1.406       .  A
C1883      C1884   1.396       .  A
C1883      N1890   1.433       .  S
C1884      H1889   1.083       .  S
C1885      C1886   1.418       .  A
C1886      N1887   1.438       .  S
N1887      H1891   1.046       .  S
N1887      H1892   1.046       .  S
N1890      H1893   1.046       .  S
N1890      H1894   1.045       .  S
C1895      C1900   1.402       .  A
C1895      H1902   1.083       .  S
C1896      C1897   1.415       .  A
C1897      C1898   1.405       .  A
C1897      N1904   1.432       .  S
C1898      H1903   1.084       .  S
C1899      C1900   1.414       .  A
C1900      N1901   1.439       .  S
N1901      H1905   1.045       .  S
N1901      H1906   1.043       .  S
N1904      H1907   1.046       .  S
N1904      H1908   1.046       .  S
