geometry optimzed in LAMMPS
_audit_creation_date              2020-11-30 
_audit_creation_method            'lammps2cif' 
_symmetry_space_group_name_H-M    'P1' 
_symmetry_Int_Tables_number       1 
_symmetry_cell_setting            triclinic 
loop_ 
_symmetry_equiv_pos_as_xyz 
  x,y,z 
_cell_length_a                    33.10474774 
_cell_length_b                    33.33264612730275 
_cell_length_c                    33.12835628687625 
_cell_angle_alpha                 89.91561002008321 
_cell_angle_beta                  90.04072906791981 
_cell_angle_gamma                 90.24473442726924 
loop_ 
_atom_site_label 
_atom_site_type_symbol 
_atom_site_fract_x 
_atom_site_fract_y 
_atom_site_fract_z 
_atom_site_charge 
C1          C  0.51219135  0.37328213  0.09492092     0.42700
N2          N  0.48623585  0.41776447  0.05576021     0.01600
C3          C  0.59504464  0.53081486  0.91665669    -0.06300
H4          H  0.61879983  0.57456201  0.05068464     0.07100
C5          C  0.46656276  0.61741168  0.06381123    -0.06600
Co6        Co  0.54808525  0.44883464  0.99761834     0.74200
N7          N  0.58163419  0.52605762  0.02852567    -0.25800
Co8        Co  0.54113330  0.55237010  0.98788711     0.74100
C9          C  0.50458255  0.64011982  0.06868969     0.42800
N10         N  0.41544618  0.51744509  0.05700411     0.01200
N11         N  0.51506097  0.58756641  0.03247254     0.01300
N12         N  0.60122752  0.46389952  0.92509651    -0.46600
H13         H  0.57531078  0.38331664  0.06747969     0.07100
N14         N  0.58372414  0.48667569  0.03282519     0.01600
N15         N  0.49957934  0.57795947  0.94783643     0.01400
C16         C  0.47228977  0.62556449  0.91331240     0.43000
N17         N  0.41865410  0.47803243  0.06021898    -0.25300
C18         C  0.52096551  0.38368096  0.93566115    -0.06200
N19         N  0.47713952  0.39064396  0.08361703    -0.46400
N20         N  0.50771934  0.60729951  0.92203711    -0.46600
C21         C  0.48289660  0.36333742  0.92612910     0.42700
N22         N  0.57156430  0.47839913  0.94746753     0.01600
N23         N  0.40537392  0.46954143  0.97597078    -0.25300
N24         N  0.52521398  0.41897017  0.04768878    -0.25800
N25         N  0.40318461  0.50875492  0.97130962     0.01200
H26         H  0.36856597  0.42040905  0.95579681     0.07100
H27         H  0.41063805  0.61404762  0.94287216     0.07200
N28         N  0.56814238  0.51770859  0.94378589    -0.25800
N29         N  0.47599277  0.58580602  0.04039078    -0.25400
N30         N  0.47189048  0.40967943  0.96969324     0.01600
C31         C  0.63269270  0.50921628  0.06866859     0.43000
C32         C  0.39177192  0.46476564  0.08723792    -0.06700
N33         N  0.46078373  0.57638321  0.95677460    -0.25400
H34         H  0.43628561  0.62554072  0.07271797     0.07200
N35         N  0.61384238  0.47536812  0.05650109    -0.46600
H36         H  0.38388806  0.43359450  0.09202398     0.07100
C37         C  0.35487829  0.48504689  0.93500367     0.42800
C38         C  0.54404975  0.39198025  0.07079793    -0.06200
Co39       Co  0.44551100  0.44354387  0.01572011     0.73800
N40         N  0.38575313  0.53180948  0.07946323    -0.46400
C41         C  0.61727074  0.49515825  0.90471266     0.43100
N42         N  0.45389892  0.38097754  0.94853433    -0.46400
Co43       Co  0.43864237  0.54707484  0.00671918     0.73900
C44         C  0.44128412  0.60494191  0.93653995    -0.06700
C45         C  0.61147637  0.54292891  0.05007493    -0.06200
N46         N  0.51111095  0.41181547  0.96277030    -0.25800
N47         N  0.53286998  0.61937822  0.04844604    -0.46500
H48         H  0.60288126  0.56196028  0.91161238     0.07100
C49         C  0.37574629  0.45205147  0.95492352    -0.06700
Cl50       Cl  0.49340008  0.49807040  0.00220582    -0.49700
C51         C  0.36962298  0.50034130  0.09947610     0.42900
H52         H  0.55131865  0.37655509  0.92607171     0.07100
N53         N  0.37350945  0.51931029  0.94676255    -0.46400
N54         N  0.19023877  0.47604766  0.19875842    -0.03200
C55         C  0.23096177  0.47053921  0.19502672    -0.00600
C56         C  0.24681369  0.45460465  0.23018099    -0.23500
C57         C  0.21597190  0.45208741  0.25734761    -0.23700
C58         C  0.18184377  0.46563714  0.23788009    -0.00700
H59         H  0.27832675  0.44861239  0.23639840     0.13100
H60         H  0.21859513  0.44378802  0.28883616     0.13100
N61         N  0.79647063  0.49530242  0.19671712    -0.03200
C62         C  0.75568428  0.49919769  0.19014733    -0.00600
C63         C  0.73463235  0.49481900  0.22587604    -0.23500
C64         C  0.76227098  0.48984307  0.25565644    -0.23700
C65         C  0.79984283  0.48897786  0.23760076    -0.00700
H66         H  0.70220587  0.49594013  0.22992865     0.13100
H67         H  0.75559717  0.48615480  0.28744085     0.13100
N68         N  0.19644434  0.50032402  0.80285632    -0.03200
C69         C  0.19292785  0.50593232  0.76195309    -0.00600
C70         C  0.23028062  0.50473048  0.74348375    -0.23500
C71         C  0.25811881  0.49939320  0.77310310    -0.23700
C72         C  0.23712752  0.49598279  0.80893234    -0.00700
H73         H  0.23656180  0.50765544  0.71154443     0.13100
H74         H  0.29049053  0.49746688  0.76897030     0.13100
N75         N  0.79900446  0.51655840  0.80636340    -0.03200
C76         C  0.80689955  0.52428151  0.76652851    -0.00600
C77         C  0.77232658  0.53687960  0.74715744    -0.23500
C78         C  0.74192566  0.53590736  0.77508055    -0.23700
C79         C  0.75826749  0.52198453  0.81092767    -0.00700
H80         H  0.76891042  0.54283999  0.71521435     0.13100
H81         H  0.71025880  0.54107256  0.76888440     0.13100
N82         N  0.99771970  0.49563406  0.93842128    -0.36300
N83         N  0.93413441  0.49824517  0.00095692    -0.56900
N84         N  0.99640321  0.50434584  0.06337561    -0.36300
N85         N  0.05996553  0.50630583  0.00084486    -0.56900
C86         C  0.96449460  0.49654150  0.91444508     0.27200
C87         C  0.03077276  0.49945584  0.91445383     0.27200
C88         C  0.96302922  0.50861274  0.08669485     0.27200
C89         C  0.02918880  0.51179043  0.08672805     0.27200
C90         C  0.91028388  0.49340838  0.96808646     0.35900
C91         C  0.90977476  0.49665831  0.03379561     0.35900
C92         C  0.08451747  0.50188355  0.96840132     0.35900
C93         C  0.08373838  0.50500556  0.03415649     0.35900
C94         C  0.97672734  0.50001175  0.87453577    -0.21600
C95         C  0.01827227  0.50165074  0.87452252    -0.21600
C96         C  0.97488662  0.51886814  0.12551923    -0.21600
C97         C  0.01649340  0.52077266  0.12555372    -0.21600
C98         C  0.87036225  0.48920578  0.98021247    -0.22700
C99         C  0.87009919  0.49086437  0.02165282    -0.22700
C100        C  0.12427810  0.49893763  0.98126172    -0.22700
C101        C  0.12372783  0.50035563  0.02269645    -0.22700
C102        C  0.92332517  0.49460008  0.92713067    -0.18000
C103        C  0.07196466  0.50052144  0.92723301    -0.18000
C104        C  0.07033649  0.50799777  0.07490190    -0.18000
C105        C  0.92224781  0.50200349  0.07456831    -0.18000
H106        H  0.95770983  0.50130751  0.84798288     0.14900
H107        H  0.03702655  0.50437518  0.84791834     0.14900
H108        H  0.95559837  0.52402069  0.15135150     0.14900
H109        H  0.03531412  0.52758696  0.15139985     0.14900
H110        H  0.84400221  0.48547134  0.96123039     0.13200
H111        H  0.84355217  0.48873677  0.04060727     0.13200
H112        H  0.15099759  0.49549557  0.96281598     0.13200
H113        H  0.14993881  0.49829464  0.04212009     0.13200
H114        H  0.99779651  0.49212381  0.96913717     0.26400
H115        H  0.99705065  0.49461080  0.03403193     0.26400
C116        C  0.08577740  0.36597349  0.50657992     0.42700
N117        N  0.04565051  0.41447481  0.52166880     0.01600
C118        C  0.91607705  0.51822009  0.39378554    -0.06300
H119        H  0.04522930  0.56028107  0.37182045     0.07100
C120        C  0.05333336  0.61084794  0.53131682    -0.06600
Co121      Co  0.99582399  0.44030760  0.45092608     0.74200
N122        N  0.02923672  0.51588191  0.41564804    -0.25800
Co123      Co  0.98507798  0.54452841  0.44987794     0.74100
C124        C  0.06496292  0.63143480  0.49404173     0.42800
N125        N  0.03771153  0.51831036  0.58459976     0.01200
N126        N  0.02676192  0.58116383  0.47959365     0.01300
N127        N  0.92631155  0.45129757  0.39105316    -0.46600
H128        H  0.06619003  0.36929203  0.43965356     0.07100
N129        N  0.03504865  0.47675073  0.41773049     0.01600
N130        N  0.94089054  0.57289522  0.48397666     0.01400
C131        C  0.89915300  0.61821354  0.50328691     0.43000
N132        N  0.04226669  0.47904422  0.58384936    -0.25300
C133        C  0.93143700  0.37575862  0.47406850    -0.06200
N134        N  0.07100676  0.38808216  0.53715707    -0.46400
N135        N  0.91575516  0.60065726  0.47052980    -0.46600
C136        C  0.91734693  0.35764234  0.51176623     0.42700
N137        N  0.94835023  0.46813984  0.41990788     0.01600
N138        N  0.95642149  0.47040000  0.58870461    -0.25300
N139        N  0.04266760  0.41176347  0.48209412    -0.25800
N140        N  0.95149027  0.50959344  0.58691833     0.01200
H141        H  0.93565952  0.42547762  0.63071803     0.07100
H142        H  0.91366825  0.60628134  0.57020127     0.07200
N143        N  0.94374812  0.50747963  0.42108137    -0.25800
N144        N  0.02905292  0.58085947  0.51937949    -0.25400
N145        N  0.95844850  0.40580548  0.52534755     0.01600
C146        C  0.06885508  0.49536274  0.36519181     0.43000
C147        C  0.07024798  0.46868925  0.61096762    -0.06700
N148        N  0.94281184  0.57219188  0.52369850    -0.25400
H149        H  0.05915722  0.61905924  0.56234168     0.07200
N150        N  0.05867777  0.46364265  0.38853713    -0.46600
H151        H  0.07815370  0.43820490  0.61872284     0.07100
C152        C  0.91504897  0.49117474  0.63691702     0.42800
C153        C  0.06665971  0.38179164  0.46973102    -0.06200
Co154      Co  0.00081228  0.44222149  0.55494111     0.73800
N155        N  0.05974916  0.53558857  0.61307912    -0.46400
C156        C  0.90517094  0.48106698  0.37318483     0.43100
N157        N  0.93554360  0.37769472  0.54224755    -0.46400
Co158      Co  0.99032111  0.54523514  0.55381954     0.73900
C159        C  0.91640194  0.59851196  0.53865457    -0.06700
C160        C  0.04908166  0.53026884  0.38341008    -0.06200
N161        N  0.95668812  0.40516797  0.48550801    -0.25800
N162        N  0.04727373  0.61128597  0.46332705    -0.46500
H163        H  0.90881842  0.54879987  0.38570316     0.07100
C164        C  0.93454491  0.45594286  0.61951965    -0.06700
Cl165      Cl  0.99311984  0.49306527  0.50231823    -0.49700
C166        C  0.08106957  0.50617829  0.63117673     0.42900
H167        H  0.92596057  0.36640179  0.44329086     0.07100
N168        N  0.92702515  0.52315975  0.61511582    -0.46400
N169        N  0.51460296  0.80064991  0.19827742    -0.03200
C170        C  0.51060746  0.80113820  0.23957561    -0.00600
C171        C  0.51138762  0.76258135  0.25492749    -0.23500
C172        C  0.51414359  0.73719079  0.22306307    -0.23700
C173        C  0.51655255  0.76059936  0.18879930    -0.00700
H174        H  0.50889164  0.75381840  0.28631416     0.13100
H175        H  0.51433449  0.70474680  0.22459334     0.13100
N176        N  0.51682924  0.19812762  0.20742166    -0.03200
C177        C  0.52093088  0.23915774  0.20380607    -0.00600
C178        C  0.52212071  0.25713163  0.24132354    -0.23500
C179        C  0.52051350  0.22750857  0.26917364    -0.23700
C180        C  0.51585890  0.19187667  0.24849240    -0.00700
H181        H  0.52436641  0.28890902  0.24774465     0.13100
H182        H  0.52112992  0.23159777  0.30159097     0.13100
N183        N  0.45547386  0.19204048  0.81263009    -0.03200
C184        C  0.44845629  0.23241183  0.81625248    -0.00600
C185        C  0.43247129  0.24730763  0.78066755    -0.23500
C186        C  0.43167164  0.21656879  0.75353211    -0.23700
C187        C  0.44616708  0.18315249  0.77320220    -0.00700
H188        H  0.42511328  0.27827176  0.77419424     0.13100
H189        H  0.42361752  0.21883037  0.72193914     0.13100
N190        N  0.47906968  0.80293187  0.80882716    -0.03200
C191        C  0.47932012  0.80617997  0.76749285    -0.00600
C192        C  0.47183741  0.76971581  0.74926917    -0.23500
C193        C  0.46831120  0.74236821  0.77909369    -0.23700
C194        C  0.47148953  0.76287039  0.81519098    -0.00700
H195        H  0.46957757  0.76365069  0.71723746     0.13100
H196        H  0.46270130  0.71059721  0.77501066     0.13100
N197        N  0.50727478  0.06342556  0.00777532    -0.36300
N198        N  0.51493264  0.00195287  0.06895976    -0.56900
N199        N  0.51597767  0.93891813  0.00472965    -0.36300
N200        N  0.50342594  0.00025863  0.94406694    -0.56900
C201        C  0.50149660  0.08586877  0.04152885     0.27200
C202        C  0.49420007  0.08511003  0.97576096     0.27200
C203        C  0.51260261  0.91607485  0.03848978     0.27200
C204        C  0.50721679  0.91524291  0.97237210     0.27200
C205        C  0.52051808  0.03455832  0.09288810     0.35900
C206        C  0.52432823  0.96933029  0.09140270     0.35900
C207        C  0.50268932  0.03360271  0.92065661     0.35900
C208        C  0.50708420  0.96833995  0.91889594     0.35900
C209        C  0.48510505  0.12250370  0.03065854    -0.21600
C210        C  0.48039087  0.12200634  0.98933611    -0.21600
C211        C  0.50247639  0.87716842  0.02736655    -0.21600
C212        C  0.49949134  0.87656380  0.98590691    -0.21600
C213        C  0.53329515  0.02252579  0.13081790    -0.22700
C214        C  0.53568271  0.98133070  0.12990385    -0.22700
C215        C  0.50576682  0.02273283  0.88036319    -0.22700
C216        C  0.50827760  0.98158163  0.87924495    -0.22700
C217        C  0.51177805  0.07482128  0.08176388    -0.18000
C218        C  0.49565249  0.07344431  0.93441683    -0.18000
C219        C  0.50613489  0.92730332  0.93093587    -0.18000
C220        C  0.51948428  0.92867957  0.07910023    -0.18000
H221        H  0.47727165  0.14707444  0.05045503     0.14900
H222        H  0.46827409  0.14625717  0.97131519     0.14900
H223        H  0.49777149  0.85164762  0.04707732     0.14900
H224        H  0.49205858  0.85049583  0.96790888     0.14900
H225        H  0.53963108  0.04139679  0.15664399     0.13200
H226        H  0.54419409  0.96229525  0.15498025     0.13200
H227        H  0.50524378  0.04237070  0.85431957     0.13200
H228        H  0.51008990  0.96352687  0.85219753     0.13200
H229        H  0.52108362  0.03565177  0.00616406     0.26400
H230        H  0.52493104  0.96870375  0.00410617     0.26400
N231        N  0.19070577  0.79590983  0.49808974    -0.03200
C232        C  0.18316945  0.75555457  0.49471278    -0.00600
C233        C  0.21834024  0.73375486  0.49866495    -0.23500
C234        C  0.24892981  0.76052201  0.50308309    -0.23700
C235        C  0.23176678  0.79816777  0.50351223    -0.00700
H236        H  0.22141218  0.70144550  0.49760556     0.13100
H237        H  0.28065100  0.75331011  0.50605479     0.13100
N238        N  0.80093252  0.18613159  0.53096431    -0.03200
C239        C  0.76121504  0.17798112  0.53921527    -0.00600
C240        C  0.74168060  0.21174844  0.55279018    -0.23500
C241        C  0.76955505  0.24206947  0.55267977    -0.23700
C242        C  0.80536104  0.22642921  0.53803229    -0.00700
H243        H  0.70997108  0.21438263  0.56022076     0.13100
H244        H  0.76363526  0.27316242  0.55987984     0.13100
N245        N  0.19019554  0.18718879  0.52208609    -0.03200
C246        C  0.18705099  0.22675937  0.53319511    -0.00600
C247        C  0.22420701  0.24165640  0.54492142    -0.23500
C248        C  0.25147127  0.21142304  0.54011154    -0.23700
C249        C  0.23051115  0.17876924  0.52508372    -0.00700
H250        H  0.23121317  0.27233886  0.55308669     0.13100
H251        H  0.28385159  0.21390581  0.54404358     0.13100
N252        N  0.79368429  0.79552119  0.51540705    -0.03200
C253        C  0.75344533  0.80182541  0.52330151    -0.00600
C254        C  0.73222069  0.76613865  0.52427686    -0.23500
C255        C  0.75926279  0.73647344  0.51851636    -0.23700
C256        C  0.79632237  0.75450081  0.51193989    -0.00700
H257        H  0.70013369  0.76216555  0.52930497     0.13100
H258        H  0.75247338  0.70466665  0.51815846     0.13100
N259        N  0.93072846  0.99002708  0.49740347    -0.36300
N260        N  0.99454678  0.92970574  0.49757907    -0.56900
N261        N  0.05544790  0.99439057  0.49539775    -0.36300
N262        N  0.99143570  0.05454123  0.48939893    -0.56900
C263        C  0.90818267  0.95617970  0.49359272     0.27200
C264        C  0.90652386  0.02173789  0.48937460     0.27200
C265        C  0.07950594  0.96204364  0.48986909     0.27200
C266        C  0.07793639  0.02777339  0.48836666     0.27200
C267        C  0.96256394  0.90553792  0.50598667     0.35900
C268        C  0.02837780  0.90776532  0.50368570     0.35900
C269        C  0.95788850  0.07708054  0.49459009     0.35900
C270        C  0.02350187  0.07948467  0.49438458     0.35900
C271        C  0.86901643  0.96665020  0.48309034    -0.21600
C272        C  0.86795743  0.00793537  0.48059710    -0.21600
C273        C  0.11789597  0.97512366  0.47920142    -0.20700
C274        C  0.11705239  0.01643651  0.47881228    -0.21600
C275        C  0.97619119  0.86786234  0.51716987    -0.22700
C276        C  0.01775160  0.86923976  0.51565719    -0.22700
C277        C  0.96878443  0.11665786  0.50184543    -0.22700
C278        C  0.01017178  0.11820656  0.50146260    -0.22700
C279        C  0.92120403  0.91630504  0.50168153    -0.18000
C280        C  0.91739344  0.06287193  0.49291137    -0.18000
C281        C  0.06479451  0.06814683  0.49267806    -0.18000
C282        C  0.06868895  0.92117449  0.49666056    -0.18000
H283        H  0.84360418  0.94665808  0.47835161     0.14900
H284        H  0.84164778  0.02583092  0.47361838     0.14900
H285        H  0.14416545  0.95683596  0.47327214     0.14900
H286        H  0.14256676  0.03580304  0.47243504     0.14900
H287        H  0.95807146  0.84196508  0.52524456     0.13200
H288        H  0.03785564  0.84459619  0.52243158     0.13200
H289        H  0.94902930  0.14188683  0.50717951     0.13200
H290        H  0.02834494  0.14482429  0.50635860     0.13200
H291        H  0.96019975  0.99166573  0.50763053     0.26400
H292        H  0.02602914  0.99383529  0.50578571     0.26400
C293        C  0.50244108  0.90220086  0.37969598     0.42700
N294        N  0.48157050  0.94438784  0.42402180     0.01600
C295        C  0.60359257  0.06402691  0.54591524    -0.06300
H296        H  0.61016401  0.93933856  0.59127445     0.07100
C297        C  0.44651310  0.93540659  0.61639233    -0.06600
Co298      Co  0.55088178  0.98891663  0.46083825     0.74200
N299        N  0.57390430  0.95579414  0.54049458    -0.25800
Co300      Co  0.53844453  0.00136336  0.56402858     0.74100
C301        C  0.48085822  0.92005248  0.63910380     0.42800
N302        N  0.40684508  0.95478243  0.52051404     0.01200
N303        N  0.50251078  0.96125334  0.59490816     0.01300
N304        N  0.61553067  0.05134538  0.48007045    -0.46600
H305        H  0.56873792  0.91194784  0.39905197     0.07100
N306        N  0.57705636  0.94903554  0.50141321     0.01600
N307        N  0.50286189  0.04642672  0.58941540     0.01400
C308        C  0.47775123  0.08289764  0.63722728     0.43000
N309        N  0.41118447  0.94990773  0.48124715    -0.25300
C310        C  0.54018045  0.05315184  0.39310920    -0.06200
N311        N  0.46949059  0.92082006  0.39430550    -0.46400
N312        N  0.51223432  0.06669466  0.62258884    -0.46600
C313        C  0.50619658  0.06817951  0.36938962     0.42700
N314        N  0.58130574  0.03442363  0.49221393     0.01600
N315        N  0.41003132  0.03478579  0.47219845    -0.25300
N316        N  0.52104440  0.94352131  0.42930859    -0.25800
N317        N  0.40739479  0.04003063  0.51162121     0.01200
H318        H  0.36993658  0.05016997  0.42333385     0.07100
H319        H  0.41355219  0.07452998  0.61143771     0.07200
N320        N  0.57458923  0.04031398  0.53108290    -0.25800
N321        N  0.46300129  0.96111023  0.59001061    -0.25400
N322        N  0.48359243  0.02963533  0.41622818     0.01600
C323        C  0.62466256  0.91399846  0.52817113     0.43000
C324        C  0.38478386  0.92195662  0.46880628    -0.06700
N325        N  0.46370827  0.04697958  0.58225717    -0.25400
H326        H  0.41454550  0.92997746  0.62043081     0.07200
N327        N  0.60695267  0.92425530  0.49286323    -0.46600
H328        H  0.37949325  0.91346824  0.43774890     0.07100
C329        C  0.35594347  0.07104781  0.48807638     0.42800
C330        C  0.53679680  0.91670353  0.40364341    -0.06200
Co331      Co  0.44657458  0.98978333  0.44807411     0.73800
N332        N  0.37761534  0.93244356  0.53586836    -0.46400
C333        C  0.63162640  0.07027372  0.51237660     0.43100
N334        N  0.47222555  0.05229141  0.38547621    -0.46400
Co335      Co  0.43528795  0.00101165  0.55092537     0.73900
C336        C  0.44583270  0.07115571  0.60891613    -0.06700
C337        C  0.60270213  0.93528466  0.55979644    -0.06200
N338        N  0.52328836  0.02917114  0.42102138    -0.25800
N339        N  0.51453105  0.93728690  0.62421084    -0.46500
H340        H  0.60760491  0.07056790  0.57759381     0.07100
C341        C  0.37872941  0.05352500  0.45459543    -0.06700
Cl342      Cl  0.49283034  0.99560288  0.50586044    -0.49700
C343        C  0.36230603  0.91077840  0.50521869     0.42900
H344        H  0.57225689  0.05735576  0.38849663     0.07100
N345        N  0.37564011  0.06136566  0.52218036    -0.46400
C346        C  0.69224973  0.89401583  0.49954325    -0.01600
C347        C  0.66374482  0.89207361  0.53143774     0.08100
C348        C  0.67205368  0.86709017  0.56497445    -0.01700
C349        C  0.70585659  0.84172186  0.56458336    -0.01700
C350        C  0.73114290  0.83976099  0.53012643     0.08200
C351        C  0.72458482  0.86671295  0.49803375    -0.01900
Br352      Br  0.75517153  0.86243215  0.44888618    -0.00400
Br353      Br  0.68827665  0.93432404  0.45763238    -0.00500
Br354      Br  0.71404216  0.80536470  0.60977704    -0.00500
Br355      Br  0.63601982  0.86340474  0.61054922    -0.00500
C356        C  0.84941135  0.82918998  0.47614070    -0.01600
C357        C  0.82596904  0.82558878  0.51188096     0.08100
C358        C  0.83521270  0.85173546  0.54449369    -0.01700
C359        C  0.86658530  0.88053406  0.54132398    -0.01700
C360        C  0.88930279  0.88412342  0.50557922     0.08200
C361        C  0.88058514  0.85829471  0.47307494    -0.01900
Br362      Br  0.91088521  0.86402883  0.42363084    -0.00400
Br363      Br  0.83768416  0.79666119  0.42969437    -0.00500
Br364      Br  0.87943816  0.91489946  0.58650171    -0.00500
Br365      Br  0.80807694  0.84634578  0.59544503    -0.00500
C366        C  0.27893460  0.15178283  0.47443695    -0.01600
C367        C  0.25284864  0.14420039  0.50766311     0.08100
C368        C  0.25645943  0.10758428  0.52869635    -0.01700
C369        C  0.28743727  0.08051459  0.51853394    -0.01700
C370        C  0.31584173  0.09054903  0.48826002     0.08200
C371        C  0.30914219  0.12429314  0.46390618    -0.01900
Br372      Br  0.34371999  0.13541495  0.41837818    -0.00400
Br373      Br  0.27848563  0.20273046  0.44653431    -0.00500
Br374      Br  0.29122063  0.02969383  0.54653274    -0.00500
Br375      Br  0.22378168  0.09662251  0.57526963    -0.00500
C376        C  0.13423658  0.14328265  0.54524137    -0.01600
C377        C  0.15754599  0.15908565  0.51298216     0.08100
C378        C  0.15024086  0.14403466  0.47363006    -0.01700
C379        C  0.11859556  0.11616786  0.46658986    -0.01700
C380        C  0.09627545  0.10013725  0.49907263     0.08200
C381        C  0.10434450  0.11381615  0.53842900    -0.01900
Br382      Br  0.07469294  0.09122607  0.58340979    -0.00400
Br383      Br  0.14582635  0.15826356  0.60005005    -0.00500
Br384      Br  0.10537953  0.09977709  0.41230364    -0.00500
Br385      Br  0.18430754  0.15842331  0.42923787    -0.00500
C386        C  0.69111800  0.10795673  0.48265574    -0.01600
C387        C  0.67345875  0.08685189  0.51511665     0.08100
C388        C  0.69347960  0.08708492  0.55266322    -0.01700
C389        C  0.72210265  0.11695216  0.56117799    -0.01700
C390        C  0.73813025  0.14079556  0.52972256     0.08200
C391        C  0.72312191  0.13511151  0.49005211    -0.01900
Br392      Br  0.73923281  0.17066839  0.44719359    -0.00400
Br393      Br  0.67126272  0.10105204  0.42823208    -0.00500
Br394      Br  0.73020568  0.13040966  0.61709633    -0.00500
Br395      Br  0.68557495  0.04420995  0.59121559    -0.00500
C396        C  0.84718263  0.15301206  0.48081508    -0.01600
C397        C  0.83117535  0.15645618  0.52025430     0.08100
C398        C  0.84360600  0.12846929  0.54991209    -0.01700
C399        C  0.86990027  0.09691096  0.54023578    -0.01700
C400        C  0.88458128  0.09270890  0.50068842     0.08200
C401        C  0.87241126  0.12028826  0.47077296    -0.01900
Br402      Br  0.88999638  0.11241268  0.41593018    -0.00400
Br403      Br  0.83847272  0.19431022  0.44138259    -0.00500
Br404      Br  0.88711403  0.05984649  0.58175909    -0.00500
Br405      Br  0.82885761  0.13575872  0.60548185    -0.00500
C406        C  0.26243086  0.86246424  0.47770740    -0.01600
C407        C  0.25794415  0.83400848  0.50892301     0.08100
C408        C  0.28590861  0.83412372  0.54145803    -0.01700
C409        C  0.31982781  0.85956410  0.54049297    -0.01700
C410        C  0.32480122  0.88687062  0.50835715     0.08200
C411        C  0.29407244  0.89063099  0.47910688    -0.01900
Br412      Br  0.29337240  0.93561930  0.44228051    -0.00400
Br413      Br  0.23068522  0.85926152  0.42924857    -0.00500
Br414      Br  0.36082795  0.85441855  0.58185857    -0.00500
Br415      Br  0.27995484  0.79719672  0.58638660    -0.00500
C416        C  0.10606505  0.86451553  0.46282549    -0.01600
C417        C  0.10170590  0.89029282  0.49616141     0.08100
C418        C  0.12835227  0.88642652  0.52909933    -0.01700
C419        C  0.15755511  0.85560567  0.52976575    -0.01700
C420        C  0.16161830  0.82881622  0.49671889     0.08200
C421        C  0.13587650  0.83428142  0.46286458    -0.01900
Br422      Br  0.14243069  0.80270952  0.41482369    -0.00400
Br423      Br  0.07146363  0.87163111  0.41641013    -0.00500
Br424      Br  0.18818902  0.84800202  0.57849324    -0.00500
Br425      Br  0.12412838  0.92317074  0.57392811    -0.00500
C426        C  0.45583336  0.87208037  0.73969445    -0.01600
C427        C  0.48549690  0.84180438  0.74157126     0.08100
C428        C  0.51311405  0.83783406  0.70908065    -0.01700
C429        C  0.50834393  0.86108276  0.67425792    -0.01700
C430        C  0.48106450  0.89309036  0.67404490     0.08200
C431        C  0.45565127  0.89951294  0.70744644    -0.01900
Br432      Br  0.41985716  0.94502849  0.70918432    -0.00400
Br433      Br  0.41066047  0.87212175  0.77594909    -0.00500
Br434      Br  0.53355403  0.84451948  0.62446087    -0.00500
Br435      Br  0.55497900  0.79738235  0.70956240    -0.00500
C436        C  0.52363823  0.85437155  0.84211547    -0.01600
C437        C  0.48563415  0.83471277  0.83874859     0.08100
C438        C  0.45460272  0.84639216  0.86572185    -0.01700
C439        C  0.46079824  0.87800517  0.89362840    -0.01700
C440        C  0.49934744  0.89554847  0.89873400     0.08200
C441        C  0.53091595  0.88295227  0.87308035    -0.01900
Br442      Br  0.58462244  0.90405201  0.88133997    -0.00400
Br443      Br  0.56717977  0.84026642  0.80644326    -0.00500
Br444      Br  0.41586310  0.89841389  0.92438512    -0.00500
Br445      Br  0.40284106  0.82013706  0.86478111    -0.00500
C446        C  0.42595536  0.12337426  0.73125956    -0.01600
C447        C  0.45677654  0.14669459  0.74929943     0.08100
C448        C  0.49640745  0.14349648  0.73360134    -0.01700
C449        C  0.50433409  0.12020774  0.69884674    -0.01700
C450        C  0.47255318  0.09946128  0.67918732     0.08200
C451        C  0.43476674  0.09714886  0.69922504    -0.01900
Br452      Br  0.39601087  0.05516608  0.68766181    -0.00400
Br453      Br  0.36993419  0.13186501  0.74421895    -0.00500
Br454      Br  0.55897500  0.11844169  0.67828906    -0.00500
Br455      Br  0.53888538  0.17713917  0.75431071    -0.00500
C456        C  0.43720199  0.13572646  0.85789629    -0.01600
C457        C  0.46668127  0.16346069  0.84397945     0.08100
C458        C  0.50508579  0.16353323  0.86292529    -0.01700
C459        C  0.51473050  0.13382876  0.89195158    -0.01700
C460        C  0.48590118  0.10468294  0.90333961     0.08200
C461        C  0.44684289  0.10633085  0.88684379    -0.01900
Br462      Br  0.40586095  0.06929501  0.90572588    -0.00400
Br463      Br  0.38151751  0.14184720  0.84270944    -0.00500
Br464      Br  0.56742037  0.13301495  0.91686176    -0.00500
Br465      Br  0.54405762  0.20499606  0.85211186    -0.00500
C466        C  0.53665043  0.12267729  0.27248640    -0.01600
C467        C  0.50857256  0.15441534  0.27202885     0.08100
C468        C  0.47845340  0.15581129  0.30249881    -0.01700
C469        C  0.47933395  0.12881882  0.33495937    -0.01700
C470        C  0.50670689  0.09669382  0.33499628     0.08200
C471        C  0.53413822  0.09262634  0.30254327    -0.01900
Br472      Br  0.56794495  0.04585139  0.29845740    -0.00400
Br473      Br  0.58163302  0.12251888  0.23575539    -0.00500
Br474      Br  0.44668859  0.13969648  0.38201657    -0.00500
Br475      Br  0.43672889  0.19651278  0.30176217    -0.00500
C476        C  0.48020095  0.11138423  0.14134004    -0.01600
C477        C  0.51254672  0.10705110  0.11397926     0.08100
C478        C  0.54575693  0.13348103  0.11714373    -0.01700
C479        C  0.54694249  0.16348231  0.14740745    -0.01700
C480        C  0.51473202  0.16791132  0.17529436     0.08200
C481        C  0.48124101  0.14131774  0.17175937    -0.01900
Br482      Br  0.43493787  0.14704031  0.20633079    -0.00400
Br483      Br  0.43371509  0.07665253  0.13617347    -0.00500
Br484      Br  0.59490194  0.19581156  0.15232369    -0.00500
Br485      Br  0.59047009  0.12756720  0.08030746    -0.00500
C486        C  0.47078936  0.83235491  0.29480951    -0.01600
C487        C  0.50389441  0.83535147  0.26775409     0.08100
C488        C  0.53435727  0.86400632  0.27554323    -0.01700
C489        C  0.53279840  0.88778992  0.31076690    -0.01700
C490        C  0.50250683  0.88079228  0.34024805     0.08200
C491        C  0.47066449  0.85398461  0.33119571    -0.01900
Br492      Br  0.42779116  0.84403049  0.36974764    -0.00400
Br493      Br  0.42600030  0.79635823  0.28349516    -0.00500
Br494      Br  0.57116436  0.93125055  0.31641173    -0.00500
Br495      Br  0.58040718  0.86871791  0.24052447    -0.00500
C496        C  0.48538581  0.89260059  0.13685927    -0.01600
C497        C  0.51920361  0.89704990  0.11141333     0.08100
C498        C  0.55224784  0.87108239  0.11616426    -0.01700
C499        C  0.55113924  0.84030240  0.14546937    -0.01700
C500        C  0.51658208  0.83444080  0.17018702     0.08200
C501        C  0.48406503  0.86173303  0.16611691    -0.01900
Br502      Br  0.43607430  0.85633343  0.19823730    -0.00400
Br503      Br  0.43992884  0.92823033  0.13032842    -0.00500
Br504      Br  0.59903519  0.80906335  0.15370196    -0.00500
Br505      Br  0.59937219  0.87823409  0.08248698    -0.00500
C506        C  0.87575329  0.25639295  0.54742008    -0.01600
C507        C  0.83893751  0.25411658  0.52594489     0.08100
C508        C  0.82925679  0.28550306  0.49864430    -0.01700
C509        C  0.85410916  0.31966429  0.49542511    -0.01700
C510        C  0.89101414  0.32165177  0.51640056     0.08200
C511        C  0.90226905  0.28932162  0.54162895    -0.01900
Br512      Br  0.95403747  0.28990736  0.56851959    -0.00400
Br513      Br  0.88899313  0.21689187  0.58734524    -0.00500
Br514      Br  0.83445063  0.36603580  0.46664712    -0.00500
Br515      Br  0.78039506  0.28312259  0.46646157    -0.00500
C516        C  0.88795844  0.68937499  0.52775411    -0.01600
C517        C  0.87757456  0.65714845  0.50176410     0.08100
C518        C  0.84635068  0.66237521  0.47345283    -0.01700
C519        C  0.82491769  0.69860263  0.47209381    -0.01700
C520        C  0.83130191  0.72848311  0.50197174     0.08200
C521        C  0.86377621  0.72406466  0.52910087    -0.01900
Br522      Br  0.87307156  0.76261888  0.57130401    -0.00400
Br523      Br  0.93544822  0.68749001  0.56143494    -0.00500
Br524      Br  0.78362940  0.70531584  0.43113606    -0.00500
Br525      Br  0.82920804  0.61821304  0.43958652    -0.00500
C526        C  0.10527825  0.30536662  0.54916848    -0.01600
C527        C  0.10802231  0.32725836  0.51235848     0.08100
C528        C  0.13400705  0.31274172  0.48197899    -0.01700
C529        C  0.15452730  0.27609869  0.48723536    -0.01700
C530        C  0.15351979  0.25537005  0.52457280     0.08200
C531        C  0.13078682  0.27228035  0.55629860    -0.01900
Br532      Br  0.14004939  0.25638638  0.61144844    -0.00400
Br533      Br  0.06704803  0.31923957  0.59104132    -0.00500
Br534      Br  0.18990788  0.25864813  0.44485438    -0.00500
Br535      Br  0.14730559  0.34548068  0.43549328    -0.00500
C536        C  0.11411212  0.73251355  0.51701488    -0.01600
C537        C  0.14453327  0.73393644  0.48729598     0.08100
C538        C  0.14425387  0.70486164  0.45612433    -0.01700
C539        C  0.11789644  0.67182338  0.45810756    -0.01700
C540        C  0.08925532  0.66883879  0.48941955     0.08200
C541        C  0.08558400  0.70098537  0.51702672    -0.01900
Br542      Br  0.04157684  0.70286505  0.55497190    -0.00400
Br543      Br  0.11397455  0.77001409  0.56109146    -0.00500
Br544      Br  0.12564060  0.62823991  0.42087934    -0.00500
Br545      Br  0.18343843  0.70741993  0.41262001    -0.00500
C546        C  0.83801334  0.47500283  0.71957408    -0.01600
C547        C  0.84243398  0.51079268  0.74240315     0.08100
C548        C  0.87429474  0.53728582  0.73222795    -0.01700
C549        C  0.90170342  0.52733618  0.70148128    -0.01700
C550        C  0.89356948  0.49457899  0.67577728     0.08200
C551        C  0.86200412  0.46799462  0.68531229    -0.01900
Br552      Br  0.84768560  0.42499323  0.64866628    -0.00400
Br553      Br  0.79541839  0.43745261  0.73091181    -0.00500
Br554      Br  0.95030791  0.55923253  0.69474727    -0.00500
Br555      Br  0.87735861  0.59057271  0.75339531    -0.00500
C556        C  0.85043009  0.54284981  0.85304285    -0.01600
C557        C  0.82900998  0.50948505  0.83739614     0.08100
C558        C  0.83800774  0.47081543  0.85215967    -0.01700
C559        C  0.86918830  0.46555376  0.88098640    -0.01700
C560        C  0.89134005  0.49894414  0.89533718     0.08200
C561        C  0.88192698  0.53753285  0.88096194    -0.01900
Br562      Br  0.91219751  0.58350711  0.89993477    -0.00400
Br563      Br  0.83352065  0.59680385  0.84014513    -0.00500
Br564      Br  0.88172252  0.41277351  0.90112297    -0.00500
Br565      Br  0.80670736  0.42551297  0.83477382    -0.00500
C566        C  0.12885370  0.54392015  0.67624250    -0.01600
C567        C  0.10296831  0.51078937  0.67002775     0.08100
C568        C  0.10007734  0.48092082  0.70027236    -0.01700
C569        C  0.12825204  0.47997944  0.73198760    -0.01700
C570        C  0.15607826  0.51168069  0.73703640     0.08200
C571        C  0.15494407  0.54459384  0.70980302    -0.01900
Br572      Br  0.19247013  0.58903427  0.71534419    -0.00400
Br573      Br  0.13117855  0.58738547  0.63752650    -0.00500
Br574      Br  0.13289463  0.43131587  0.76273749    -0.00500
Br575      Br  0.05636859  0.44220737  0.70055972    -0.00500
C576        C  0.14129243  0.53466625  0.84105552    -0.01600
C577        C  0.16451221  0.49982654  0.83336496     0.08100
C578        C  0.15682911  0.46516155  0.85722781    -0.01700
C579        C  0.12578362  0.46504249  0.88654770    -0.01700
C580        C  0.10413732  0.50032055  0.89506948     0.08200
C581        C  0.11269510  0.53532304  0.87271610    -0.01900
Br582      Br  0.08564783  0.58467667  0.88644419    -0.00400
Br583      Br  0.14955807  0.58287896  0.81021265    -0.00500
Br584      Br  0.11216797  0.41618750  0.91499051    -0.00500
Br585      Br  0.18718591  0.41671224  0.84972842    -0.00500
C586        C  0.89321480  0.50603298  0.30235126    -0.01600
C587        C  0.88518240  0.47770671  0.33315905     0.08100
C588        C  0.85641803  0.44738711  0.32609807    -0.01700
C589        C  0.83342491  0.44763312  0.29038463    -0.01700
C590        C  0.83613537  0.48041394  0.26301256     0.08200
C591        C  0.86712232  0.50911705  0.26883862    -0.01900
Br592      Br  0.87140717  0.55600968  0.23542503    -0.00400
Br593      Br  0.94099905  0.53957269  0.30459070    -0.00500
Br594      Br  0.79529529  0.40430024  0.28118954    -0.00500
Br595      Br  0.84542552  0.40749172  0.36685433    -0.00500
C596        C  0.83592277  0.53306381  0.14463577    -0.01600
C597        C  0.82872709  0.49733825  0.16683427     0.08100
C598        C  0.85335497  0.46356644  0.15898606    -0.01700
C599        C  0.88324352  0.46505584  0.12859046    -0.01700
C600        C  0.89038231  0.50074152  0.10686585     0.08200
C601        C  0.86714530  0.53494119  0.11559607    -0.01900
Br602      Br  0.87915902  0.58472869  0.08827692    -0.00400
Br603      Br  0.80530498  0.58073975  0.15577273    -0.00500
Br604      Br  0.91393317  0.41770668  0.11557119    -0.00500
Br605      Br  0.84452764  0.41384650  0.18726855    -0.00500
C606        C  0.12067439  0.44462408  0.27756728    -0.01600
C607        C  0.14507752  0.47543968  0.26141062     0.08100
C608        C  0.14165710  0.51447765  0.27757816    -0.01700
C609        C  0.11486363  0.52239690  0.30962617    -0.01700
C610        C  0.09050292  0.49125893  0.32574878     0.08200
C611        C  0.09086969  0.45345570  0.30628631    -0.01900
Br612      Br  0.04971521  0.41335653  0.31669794    -0.00400
Br613      Br  0.13315614  0.38897865  0.26840674    -0.00500
Br614      Br  0.11490865  0.57569759  0.33182251    -0.00500
Br615      Br  0.17994339  0.55552999  0.26243383    -0.00500
C616        C  0.12802399  0.53216500  0.11973145    -0.01600
C617        C  0.10090387  0.50164600  0.10775471     0.08100
C618        C  0.10421613  0.46332655  0.12512333    -0.01700
C619        C  0.13442361  0.45539721  0.15385051    -0.01700
C620        C  0.16080381  0.48601998  0.16758033     0.08200
C621        C  0.15813273  0.52441115  0.14922686    -0.01900
Br622      Br  0.19609161  0.56616342  0.16182969    -0.00400
Br623      Br  0.12370506  0.58449780  0.09522501    -0.00500
Br624      Br  0.14312281  0.40062479  0.16962821    -0.00500
Br625      Br  0.06789082  0.42091085  0.10823263    -0.00500
C626        C  0.48658718  0.30476791  0.11688617    -0.01600
C627        C  0.51586904  0.33586571  0.11925240     0.08100
C628        C  0.54966028  0.33078673  0.14464810    -0.01700
C629        C  0.55439183  0.29518742  0.16691852    -0.01700
C630        C  0.52356007  0.26539540  0.16729420     0.08200
C631        C  0.48994470  0.27029065  0.14153776    -0.01900
Br632      Br  0.44596283  0.23243518  0.14259990    -0.00400
Br633      Br  0.44094086  0.30883319  0.08071165    -0.00500
Br634      Br  0.60232003  0.28935321  0.20009904    -0.00500
Br635      Br  0.58708710  0.37466714  0.15394932    -0.00500
C636        C  0.54930423  0.68525231  0.11081502    -0.01600
C637        C  0.51235617  0.67883300  0.09037660     0.08100
C638        C  0.48232675  0.70868642  0.09336754    -0.01700
C639        C  0.48578217  0.73942706  0.12253869    -0.01700
C640        C  0.51954475  0.74085375  0.14861732     0.08200
C641        C  0.55172239  0.71379395  0.14189406    -0.01900
Br642      Br  0.59699684  0.71071463  0.17892685    -0.00400
Br643      Br  0.59766756  0.65666297  0.09640394    -0.00500
Br644      Br  0.44121626  0.77536747  0.13009016    -0.00500
Br645      Br  0.43824398  0.70996830  0.05524566    -0.00500
C646        C  0.49930037  0.69543288  0.90085186    -0.01600
C647        C  0.46841610  0.66634677  0.89560144     0.08100
C648        C  0.43349323  0.67672972  0.87340992    -0.01700
C649        C  0.43128283  0.71420444  0.85414164    -0.01700
C650        C  0.46547628  0.73996740  0.85313671     0.08200
C651        C  0.49863447  0.73127073  0.87829704    -0.01900
Br652      Br  0.54571351  0.76508801  0.87865616    -0.00400
Br653      Br  0.54280401  0.68726222  0.93899634    -0.00500
Br654      Br  0.38343247  0.72700754  0.82281647    -0.00500
Br655      Br  0.39028224  0.63846012  0.86417310    -0.00500
C656        C  0.68941969  0.51892712  0.90307030    -0.01600
C657        C  0.65820379  0.49477778  0.88708200     0.08100
C658        C  0.66561935  0.47140831  0.85292893    -0.01700
C659        C  0.70167626  0.47666927  0.83123956    -0.01700
C660        C  0.73078332  0.50591760  0.84320789     0.08200
C661        C  0.72531732  0.52515474  0.88087500    -0.01900
Br662      Br  0.76463023  0.56134611  0.90255806    -0.00400
Br663      Br  0.68350591  0.54242821  0.95611253    -0.00500
Br664      Br  0.70831369  0.44563185  0.78276775    -0.00500
Br665      Br  0.62469480  0.43430049  0.83411310    -0.00500
C666        C  0.45412436  0.29408506  0.91377748    -0.01600
C667        C  0.47684106  0.32747415  0.90010614     0.08100
C668        C  0.49366998  0.32661355  0.86113320    -0.01700
C669        C  0.48846726  0.29266774  0.83650654    -0.01700
C670        C  0.46237764  0.26082932  0.84842082     0.08200
C671        C  0.44535551  0.26182189  0.88746125    -0.01900
Br672      Br  0.40757300  0.22148170  0.90459478    -0.00400
Br673      Br  0.43568136  0.29173466  0.96895893    -0.00500
Br674      Br  0.51767617  0.29037383  0.78589500    -0.00500
Br675      Br  0.52002963  0.37365279  0.83910365    -0.00500
C676        C  0.26217385  0.51797443  0.87701152    -0.01600
C677        C  0.25919113  0.48816091  0.84707789     0.08100
C678        C  0.28550078  0.45476867  0.84856909    -0.01700
C679        C  0.31610547  0.45272223  0.87794086    -0.01700
C680        C  0.31956207  0.48325491  0.90742686     0.08200
C681        C  0.29063934  0.51432726  0.90828266    -0.01900
Br682      Br  0.28925695  0.55230943  0.95235682    -0.00400
Br683      Br  0.23305698  0.56749640  0.87196783    -0.00500
Br684      Br  0.35527274  0.40997846  0.87364919    -0.00500
Br685      Br  0.28254545  0.41319656  0.80763872    -0.00500
C686        C  0.26363302  0.46676997  0.12616742    -0.01600
C687        C  0.25854282  0.48639839  0.16344562     0.08100
C688        C  0.28702554  0.51614574  0.17531784    -0.01700
C689        C  0.32187283  0.52318633  0.15226272    -0.01700
C690        C  0.32888536  0.50037942  0.11753340     0.08200
C691        C  0.29817146  0.47481034  0.10258192    -0.01900
Br692      Br  0.30276197  0.45171322  0.04931744    -0.00400
Br693      Br  0.22664136  0.42551704  0.10929234    -0.00500
Br694      Br  0.36169697  0.56188516  0.17000511    -0.00500
Br695      Br  0.28120597  0.54471179  0.22574186    -0.00500
C696        C  0.70306012  0.53831306  0.15414733    -0.01600
C697        C  0.73296999  0.50799446  0.15214335     0.08100
C698        C  0.73152779  0.48049478  0.11966092    -0.01700
C699        C  0.70083548  0.48343145  0.09015532    -0.01700
C700        C  0.66852687  0.51044164  0.09554229     0.08200
C701        C  0.66952580  0.53724841  0.12824141    -0.01900
Br702      Br  0.62188288  0.56688751  0.14304704    -0.00400
Br703      Br  0.70542782  0.57979529  0.19504345    -0.00500
Br704      Br  0.70266944  0.44945393  0.04296248    -0.00500
Br705      Br  0.76693308  0.43510064  0.11766809    -0.00500
loop_ 
_geom_bond_atom_site_label_1 
_geom_bond_atom_site_label_2 
_geom_bond_distance 
_geom_bond_site_symmetry_2 
_ccdc_geom_bond_type 
C1           N19   1.351       .  A
C1           C38   1.461       .  S
C1          C627   1.489       .  S
N2           N19   1.325       .  A
N2           N24   1.318       .  A
N2          Co39   2.078       .  S
C3           N28   1.337       .  A
C3           C41   1.456       .  S
C3           H48   1.082       .  S
H4           C45   1.081       .  S
C5           N29   1.347       .  A
C5            C9   1.475       .  S
C5           H34   1.081       .  S
Co6          N24   2.075   1_556  S
Co6          N14   2.082   1_556  S
Co6          N46   2.084       .  S
Co6          N22   2.080       .  S
Co6         Cl50   2.454   1_556  S
N7           C45   1.341       .  A
N7           N14   1.322       .  A
N7           Co8   2.094   1_554  S
Co8          N11   2.078   1_556  S
Co8          N28   2.070       .  S
Co8          N15   2.094       .  S
Co8         Cl50   2.444   1_556  S
C9           N47   1.346       .  A
C9          C637   1.499       .  S
N10          N17   1.323       .  A
N10          N40   1.325       .  A
N10         Co43   2.081       .  S
N11          N29   1.321       .  A
N11          N47   1.322       .  A
N12          C41   1.348       .  A
N12          N22   1.324       .  A
H13          C38   1.081       .  S
N14          N35   1.324       .  A
N15          N33   1.319       .  A
N15          N20   1.325       .  A
C16          N20   1.355       .  A
C16          C44   1.453       .  S
C16         C647   1.486       .  S
N17          C32   1.336       .  A
N17         Co39   2.074       .  S
C18          N46   1.341       .  A
C18          C21   1.463       .  S
C18          H52   1.082       .  S
C21          N42   1.351       .  A
C21         C667   1.488       .  S
N22          N28   1.321       .  A
N23          C49   1.335       .  A
N23          N25   1.318       .  A
N23         Co39   2.063   1_556  S
N24          C38   1.337       .  A
N25          N53   1.323       .  A
N25         Co43   2.092   1_556  S
H26          C49   1.081       .  S
H27          C44   1.081       .  S
N29         Co43   2.104       .  S
N30          N42   1.326       .  A
N30          N46   1.320       .  A
N30         Co39   2.092   1_556  S
C31          N35   1.349       .  A
C31          C45   1.463       .  S
C31         C700   1.483       .  S
C32          C51   1.455       .  S
C32          H36   1.082       .  S
N33          C44   1.332       .  A
N33         Co43   2.054   1_556  S
C37          N53   1.353       .  A
C37          C49   1.458       .  S
C37         C680   1.484       .  S
Co39        Cl50   2.448       .  S
N40          C51   1.349       .  A
C41         C657   1.476       .  S
Co43        Cl50   2.450       .  S
C51         C690   1.476       .  S
N54          C58   1.370       .  A
N54          C55   1.367       .  A
N54         C620   1.458       .  S
C55         C687   1.484       .  S
C55          C56   1.383       .  A
C56          H59   1.083       .  S
C56          C57   1.364       .  A
C57          H60   1.082       .  S
C57          C58   1.378       .  A
C58         C607   1.484       .  S
N61          C65   1.375       .  A
N61          C62   1.374       .  A
N61         C597   1.458       .  S
C62         C697   1.495       .  S
C62          C63   1.381       .  A
C63          H66   1.083       .  S
C63          C64   1.356       .  A
C64          H67   1.083       .  S
C64          C65   1.381       .  A
C65         C590   1.495       .  S
N68          C72   1.370       .  A
N68          C69   1.373       .  A
N68         C577   1.463       .  S
C69         C570   1.485       .  S
C69          C70   1.381       .  A
C70          H73   1.083       .  S
C70          C71   1.358       .  A
C71          H74   1.083       .  S
C71          C72   1.380       .  A
C72         C677   1.482       .  S
N75          C79   1.370       .  A
N75          C76   1.369       .  A
N75         C557   1.449       .  S
C76         C547   1.494       .  S
C76          C77   1.379       .  A
C77          H80   1.082       .  S
C77          C78   1.368       .  A
C78          H81   1.083       .  S
C78          C79   1.385       .  A
C79         C660   1.501       .  S
N82          C87   1.358   1_655  A
N82          C86   1.357       .  A
N82         H114   1.024       .  S
N83          C90   1.354   1_554  A
N83          C91   1.355       .  A
N84          C89   1.355   1_655  A
N84          C88   1.357       .  A
N84         H115   1.026       .  S
N85          C92   1.357   1_554  A
N85          C93   1.356       .  A
C86          C94   1.388       .  A
C86         C102   1.428       .  A
C87         C103   1.428       .  A
C87          C95   1.388       .  A
C88          C96   1.387       .  A
C88         C105   1.425       .  A
C89         C104   1.424       .  A
C89          C97   1.387       .  A
C90         C102   1.425       .  A
C90          C98   1.388       .  A
C91         C105   1.423       .  A
C91          C99   1.386       .  A
C92         C100   1.387       .  A
C92         C103   1.426       .  A
C93         C101   1.387       .  A
C93         C104   1.425       .  A
C94         H106   1.082       .  S
C94          C95   1.376   1_655  A
C95         H107   1.082       .  S
C96         H108   1.082       .  S
C96          C97   1.379   1_655  A
C97         H109   1.082       .  S
C98         H110   1.082       .  S
C98          C99   1.374   1_556  A
C99         H111   1.082       .  S
C100        H112   1.082       .  S
C100        C101   1.374   1_556  A
C101        H113   1.082       .  S
C102        C560   1.500       .  S
C103        C580   1.507       .  S
C104        C617   1.501       .  S
C105        C600   1.503       .  S
C116        N134   1.347       .  A
C116        C153   1.473       .  S
C116        C527   1.500       .  S
N117        N134   1.321       .  A
N117        N139   1.318       .  A
N117       Co154   2.071       .  S
C118        N143   1.336       .  A
C118        C156   1.459       .  S
C118        H163   1.081       .  S
H119        C160   1.079       .  S
C120        N144   1.340       .  A
C120        C124   1.463       .  S
C120        H149   1.081       .  S
Co121       N139   2.094   1_655  S
Co121       N129   2.087   1_655  S
Co121       N161   2.085       .  S
Co121       N137   2.096       .  S
Co121      Cl165   2.451       .  S
N122        C160   1.341       .  A
N122        N129   1.321       .  A
N122       Co123   2.086   1_455  S
Co123       N126   2.086   1_655  S
Co123       N143   2.072       .  S
Co123       N130   2.080       .  S
Co123      Cl165   2.455       .  S
C124        N162   1.352       .  A
C124        C540   1.489       .  S
N125        N132   1.318       .  A
N125        N155   1.323       .  A
N125       Co158   2.077   1_455  S
N126        N144   1.320       .  A
N126        N162   1.324       .  A
N127        C156   1.352       .  A
N127        N137   1.326       .  A
H128        C153   1.081       .  S
N129        N150   1.320       .  A
N130        N148   1.318       .  A
N130        N135   1.324       .  A
C131        N135   1.352       .  A
C131        C159   1.459       .  S
C131        C517   1.485       .  S
N132        C147   1.336       .  A
N132       Co154   2.072       .  S
C133        N161   1.341       .  A
C133        C136   1.462       .  S
C133        H167   1.082       .  S
C136        N157   1.352       .  A
C136        C510   1.488       .  S
N137        N143   1.321       .  A
N138        C164   1.340       .  A
N138        N140   1.319       .  A
N138       Co154   2.076   1_655  S
N139        C153   1.344       .  A
N140        N168   1.319       .  A
N140       Co158   2.062       .  S
H141        C164   1.081       .  S
H142        C159   1.081       .  S
N144       Co158   2.083   1_455  S
N145        N157   1.326       .  A
N145        N161   1.321       .  A
N145       Co154   2.095   1_655  S
C146        N150   1.351       .  A
C146        C160   1.468       .  S
C146        C610   1.497       .  S
C147        C166   1.462       .  S
C147        H151   1.081       .  S
N148        C159   1.337       .  A
N148       Co158   2.070       .  S
C152        N168   1.345       .  A
C152        C164   1.462       .  S
C152        C550   1.476       .  S
Co154      Cl165   2.443   1_455  S
N155        C166   1.350       .  A
C156        C587   1.486       .  S
Co158      Cl165   2.440       .  S
C166        C567   1.485       .  S
N169        C173   1.374       .  A
N169        C170   1.375       .  A
N169        C500   1.461       .  S
C170        C487   1.492       .  S
C170        C171   1.382       .  A
C171        H174   1.083       .  S
C171        C172   1.357       .  A
C172        H175   1.083       .  S
C172        C173   1.379       .  A
C173        C640   1.489       .  S
N176        C180   1.377       .  A
N176        C177   1.379       .  A
N176        C480   1.468       .  S
C177        C630   1.494       .  S
C177        C178   1.381       .  A
C178        H181   1.083       .  S
C178        C179   1.351       .  A
C179        H182   1.083       .  S
C179        C180   1.380       .  A
C180        C467   1.490       .  S
N183        C187   1.374       .  A
N183        C184   1.372       .  A
N183        C457   1.457       .  S
C184        C670   1.498       .  S
C184        C185   1.384       .  A
C185        H188   1.083       .  S
C185        C186   1.364       .  A
C186        H189   1.082       .  S
C186        C187   1.378       .  A
C187        C447   1.495       .  S
N190        C194   1.374       .  A
N190        C191   1.373       .  A
N190        C437   1.467       .  S
C191        C427   1.478       .  S
C191        C192   1.379       .  A
C192        H195   1.083       .  S
C192        C193   1.348       .  A
C193        H196   1.083       .  S
C193        C194   1.382       .  A
C194        C650   1.483       .  S
N197        C202   1.354   1_554  A
N197        C201   1.360       .  A
N197        H229   1.036       .  S
N198        C205   1.358       .  A
N198        C206   1.354   1_545  A
N199        C204   1.362   1_554  A
N199        C203   1.356       .  A
N199        H230   1.035       .  S
N200        C207   1.355       .  A
N200        C208   1.359   1_545  A
C201        C209   1.385       .  A
C201        C217   1.424       .  A
C202        C218   1.425       .  A
C202        C210   1.389       .  A
C203        C211   1.388       .  A
C203        C220   1.428       .  A
C204        C219   1.430       .  A
C204        C212   1.387       .  A
C205        C217   1.422       .  A
C205        C213   1.385       .  A
C206        C220   1.424       .  A
C206        C214   1.388       .  A
C207        C215   1.388       .  A
C207        C218   1.425       .  A
C208        C216   1.386       .  A
C208        C219   1.424       .  A
C209        H221   1.082       .  S
C209        C210   1.378   1_554  A
C210        H222   1.082       .  S
C211        H223   1.082       .  S
C211        C212   1.377   1_554  A
C212        H224   1.082       .  S
C213        H225   1.083       .  S
C213        C214   1.376   1_545  A
C214        H226   1.082       .  S
C215        H227   1.082       .  S
C215        C216   1.375   1_545  A
C216        H228   1.082       .  S
C217        C477   1.516       .  S
C218        C460   1.499       .  S
C219        C440   1.520       .  S
C220        C497   1.501       .  S
N231        C235   1.373       .  A
N231        C232   1.372       .  A
N231        C420   1.463       .  S
C232        C537   1.486       .  S
C232        C233   1.381       .  A
C233        H236   1.083       .  S
C233        C234   1.355       .  A
C234        H237   1.083       .  S
C234        C235   1.380       .  A
C235        C407   1.484       .  S
N238        C242   1.371       .  A
N238        C239   1.369       .  A
N238        C397   1.455       .  S
C239        C390   1.487       .  S
C239        C240   1.377       .  A
C240        H243   1.082       .  S
C240        C241   1.366       .  A
C241        H244   1.083       .  S
C241        C242   1.385       .  A
C242        C507   1.496       .  S
N245        C249   1.369       .  A
N245        C246   1.374       .  A
N245        C377   1.459       .  S
C246        C530   1.494       .  S
C246        C247   1.380       .  A
C247        H250   1.082       .  S
C247        C248   1.365       .  A
C248        H251   1.083       .  S
C248        C249   1.382       .  A
C249        C367   1.489       .  S
N252        C256   1.375       .  A
N252        C253   1.375       .  A
N252        C357   1.467       .  S
C253        C350   1.485       .  S
C253        C254   1.379       .  A
C254        H257   1.083       .  S
C254        C255   1.351       .  A
C255        H258   1.083       .  S
C255        C256   1.381       .  A
C256        C520   1.487       .  S
N259        C264   1.355   1_565  A
N259        C263   1.356       .  A
N259        H291   1.034       .  S
N260        C267   1.356       .  A
N260        C268   1.355   1_655  A
N261        C266   1.356   1_565  A
N261        C265   1.356       .  A
N261        H292   1.033       .  S
N262        C269   1.355       .  A
N262        C270   1.356   1_655  A
C263        C271   1.388       .  A
C263        C279   1.424       .  A
C264        C280   1.421       .  A
C264        C272   1.386       .  A
C265        C273   1.388       .  A
C265        C282   1.425       .  A
C266        C281   1.424       .  A
C266        C274   1.387       .  A
C267        C279   1.424       .  A
C267        C275   1.386       .  A
C268        C282   1.425       .  A
C268        C276   1.387       .  A
C269        C277   1.387       .  A
C269        C280   1.421       .  A
C270        C278   1.386       .  A
C270        C281   1.421       .  A
C271        H283   1.082       .  S
C271        C272   1.379   1_565  A
C272        H284   1.082       .  S
C273        H285   1.082       .  S
C273        C274   1.378   1_565  A
C274        H286   1.082       .  S
C275        H287   1.082       .  S
C275        C276   1.377   1_655  A
C276        H288   1.083       .  S
C277        H289   1.082       .  S
C277        C278   1.371   1_655  A
C278        H290   1.082       .  S
C279        C360   1.508       .  S
C280        C400   1.499       .  S
C281        C380   1.503       .  S
C282        C417   1.505       .  S
C293        N311   1.348       .  A
C293        C330   1.467       .  S
C293        C490   1.490       .  S
N294        N311   1.321       .  A
N294        N316   1.319       .  A
N294       Co331   2.070       .  S
C295        N320   1.335       .  A
C295        C333   1.462       .  S
C295        H340   1.080       .  S
H296        C337   1.080       .  S
C297        N321   1.338       .  A
C297        C301   1.457       .  S
C297        H326   1.081       .  S
Co298       N316   2.085       .  S
Co298       N306   2.080       .  S
Co298       N338   2.092   1_565  S
Co298       N314   2.094   1_565  S
Co298      Cl342   2.445       .  S
N299        C337   1.337       .  A
N299        N306   1.319       .  A
N299       Co300   2.077   1_565  S
Co300       N303   2.057   1_545  S
Co300       N320   2.072       .  S
Co300       N307   2.091       .  S
Co300      Cl342   2.455   1_545  S
C301        N339   1.346       .  A
C301        C430   1.464       .  S
N302        N309   1.319       .  A
N302        N332   1.320       .  A
N302       Co335   2.066   1_565  S
N303        N321   1.318       .  A
N303        N339   1.319       .  A
N304        C333   1.351       .  A
N304        N314   1.326       .  A
H305        C330   1.081       .  S
N306        N327   1.323       .  A
N307        N325   1.318       .  A
N307        N312   1.327       .  A
C308        N312   1.355       .  A
C308        C336   1.465       .  S
C308        C450   1.507       .  S
N309        C324   1.340       .  A
N309       Co331   2.081       .  S
C310        N338   1.342       .  A
C310        C313   1.462       .  S
C310        H344   1.081       .  S
C313        N334   1.351       .  A
C313        C470   1.483       .  S
N314        N320   1.322       .  A
N315        C341   1.344       .  A
N315        N317   1.321       .  A
N315       Co331   2.091   1_545  S
N316        C330   1.342       .  A
N317        N345   1.319       .  A
N317       Co335   2.060       .  S
H318        C341   1.081       .  S
H319        C336   1.078       .  S
N321       Co335   2.071   1_565  S
N322        N334   1.323       .  A
N322        N338   1.324       .  A
N322       Co331   2.089   1_545  S
C323        N327   1.352       .  A
C323        C337   1.462       .  S
C323        C347   1.492       .  S
C324        C343   1.465       .  S
C324        H328   1.081       .  S
N325        C336   1.337       .  A
N325       Co335   2.074       .  S
C329        N345   1.344       .  A
C329        C341   1.465       .  S
C329        C370   1.481       .  S
Co331      Cl342   2.458       .  S
N332        C343   1.344       .  A
C333        C387   1.492       .  S
Co335      Cl342   2.429   1_545  S
C343        C410   1.476       .  S
C346        C347   1.418       .  A
C346        C351   1.409       .  A
C346       Br353   1.935       .  S
C347        C348   1.415       .  A
C348        C349   1.406       .  A
C348       Br355   1.928       .  S
C349        C350   1.418       .  A
C349       Br354   1.944       .  S
C350        C351   1.408       .  A
C351       Br352   1.924       .  S
C356        C357   1.421       .  A
C356        C361   1.417       .  A
C356       Br363   1.922       .  S
C357        C358   1.421       .  A
C358        C359   1.415       .  A
C358       Br365   1.920       .  S
C359        C360   1.408       .  A
C359       Br364   1.932       .  S
C360        C361   1.409       .  A
C361       Br362   1.930       .  S
C366        C367   1.421       .  A
C366        C371   1.404       .  A
C366       Br373   1.932       .  S
C367        C368   1.410       .  A
C368        C369   1.410       .  A
C368       Br375   1.919       .  S
C369        C370   1.414       .  A
C369       Br374   1.935       .  S
C370        C371   1.402       .  A
C371       Br372   1.929       .  S
C376        C377   1.418       .  A
C376        C381   1.410       .  A
C376       Br383   1.922       .  S
C377        C378   1.418       .  A
C378        C379   1.417       .  A
C378       Br385   1.913       .  S
C379        C380   1.409       .  A
C379       Br384   1.930       .  S
C380        C381   1.407       .  A
C381       Br382   1.935       .  S
C386        C387   1.410       .  A
C386        C391   1.412       .  A
C386       Br393   1.932       .  S
C387        C388   1.409       .  A
C388        C389   1.400       .  A
C388       Br395   1.932       .  S
C389        C390   1.412       .  A
C389       Br394   1.925       .  S
C390        C391   1.417       .  A
C391       Br392   1.922       .  S
C396        C397   1.415       .  A
C396        C401   1.417       .  A
C396       Br403   1.919       .  S
C397        C398   1.416       .  A
C398        C399   1.406       .  A
C398       Br405   1.921       .  S
C399        C400   1.405       .  A
C399       Br404   1.935       .  S
C400        C401   1.410       .  A
C401       Br402   1.927       .  S
C406        C407   1.410       .  A
C406        C411   1.404       .  A
C406       Br413   1.921       .  S
C407        C408   1.420       .  A
C408        C409   1.405       .  A
C408       Br415   1.940       .  S
C409        C410   1.409       .  A
C409       Br414   1.936       .  S
C410        C411   1.410       .  A
C411       Br412   1.932       .  S
C416        C417   1.408       .  A
C416        C421   1.414       .  A
C416       Br423   1.932       .  S
C417        C418   1.409       .  A
C418        C419   1.414       .  A
C418       Br425   1.932       .  S
C419        C420   1.421       .  A
C419       Br424   1.923       .  S
C420        C421   1.420       .  A
C421       Br422   1.922       .  S
C426        C427   1.412       .  A
C426        C431   1.405       .  A
C426       Br433   1.919       .  S
C427        C428   1.419       .  A
C428        C429   1.398       .  A
C428       Br435   1.938       .  S
C429        C430   1.401       .  A
C429       Br434   1.932       .  S
C430        C431   1.408       .  A
C431       Br432   1.930       .  S
C436        C437   1.420       .  A
C436        C441   1.421       .  A
C436       Br443   1.925       .  S
C437        C438   1.418       .  A
C438        C439   1.417       .  A
C438       Br445   1.921       .  S
C439        C440   1.412       .  A
C439       Br444   1.930       .  S
C440        C441   1.413       .  A
C441       Br442   1.929       .  S
C446        C447   1.413       .  A
C446        C451   1.407       .  A
C446       Br453   1.926       .  S
C447        C448   1.416       .  A
C448        C449   1.415       .  A
C448       Br455   1.922       .  S
C449        C450   1.415       .  A
C449       Br454   1.934       .  S
C450        C451   1.418       .  A
C451       Br452   1.933       .  S
C456        C457   1.418       .  A
C456        C461   1.407       .  A
C456       Br463   1.922       .  S
C457        C458   1.417       .  A
C458        C459   1.416       .  A
C458       Br465   1.920       .  S
C459        C460   1.410       .  A
C459       Br464   1.929       .  S
C460        C461   1.405       .  A
C461       Br462   1.934       .  S
C466        C467   1.411       .  A
C466        C471   1.414       .  A
C466       Br473   1.924       .  S
C467        C468   1.420       .  A
C468        C469   1.401       .  A
C468       Br475   1.940       .  S
C469        C470   1.406       .  A
C469       Br474   1.933       .  S
C470        C471   1.415       .  A
C471       Br472   1.928       .  S
C476        C477   1.411       .  A
C476        C481   1.419       .  A
C476       Br483   1.929       .  S
C477        C478   1.410       .  A
C478        C479   1.418       .  A
C478       Br485   1.930       .  S
C479        C480   1.420       .  A
C479       Br484   1.922       .  S
C480        C481   1.421       .  A
C481       Br482   1.924       .  S
C486        C487   1.419       .  A
C486        C491   1.406       .  A
C486       Br493   1.940       .  S
C487        C488   1.410       .  A
C488        C489   1.413       .  A
C488       Br495   1.922       .  S
C489        C490   1.419       .  A
C489       Br494   1.932       .  S
C490        C491   1.411       .  A
C491       Br492   1.937       .  S
C496        C497   1.409       .  A
C496        C501   1.413       .  A
C496       Br503   1.933       .  S
C497        C498   1.406       .  A
C498        C499   1.412       .  A
C498       Br505   1.932       .  S
C499        C500   1.420       .  A
C499       Br504   1.920       .  S
C500        C501   1.419       .  A
C501       Br502   1.920       .  S
C506        C507   1.413       .  A
C506        C511   1.415       .  A
C506       Br513   1.917       .  S
C507        C508   1.419       .  A
C508        C509   1.406       .  A
C508       Br515   1.938       .  S
C509        C510   1.406       .  A
C509       Br514   1.930       .  S
C510        C511   1.414       .  A
C511       Br512   1.931       .  S
C516        C517   1.419       .  A
C516        C521   1.410       .  A
C516       Br523   1.928       .  S
C517        C518   1.406       .  A
C518        C519   1.404       .  A
C518       Br525   1.935       .  S
C519        C520   1.420       .  A
C519       Br524   1.939       .  S
C520        C521   1.409       .  A
C521       Br522   1.924       .  S
C526        C527   1.423       .  A
C526        C531   1.411       .  A
C526       Br533   1.936       .  S
C527        C528   1.412       .  A
C528        C529   1.411       .  A
C528       Br535   1.936       .  S
C529        C530   1.416       .  A
C529       Br534   1.921       .  S
C530        C531   1.413       .  A
C531       Br532   1.926       .  S
C536        C537   1.409       .  A
C536        C541   1.410       .  A
C536       Br543   1.924       .  S
C537        C538   1.417       .  A
C538        C539   1.404       .  A
C538       Br545   1.941       .  S
C539        C540   1.409       .  A
C539       Br544   1.925       .  S
C540        C541   1.415       .  A
C541       Br542   1.926       .  S
C546        C547   1.420       .  A
C546        C551   1.406       .  A
C546       Br553   1.918       .  S
C547        C548   1.413       .  A
C548        C549   1.406       .  A
C548       Br555   1.913       .  S
C549        C550   1.411       .  A
C549       Br554   1.938       .  S
C550        C551   1.403       .  A
C551       Br552   1.937       .  S
C556        C557   1.415       .  A
C556        C561   1.405       .  A
C556       Br563   1.933       .  S
C557        C558   1.411       .  A
C558        C559   1.417       .  A
C558       Br565   1.917       .  S
C559        C560   1.413       .  A
C559       Br564   1.927       .  S
C560        C561   1.407       .  A
C561       Br562   1.933       .  S
C566        C567   1.410       .  A
C566        C571   1.408       .  A
C566       Br573   1.935       .  S
C567        C568   1.414       .  A
C568        C569   1.405       .  A
C568       Br575   1.935       .  S
C569        C570   1.409       .  A
C569       Br574   1.921       .  S
C570        C571   1.420       .  A
C571       Br572   1.938       .  S
C576        C577   1.419       .  A
C576        C581   1.414       .  A
C576       Br583   1.922       .  S
C577        C578   1.421       .  A
C578        C579   1.415       .  A
C578       Br585   1.922       .  S
C579        C580   1.409       .  A
C579       Br584   1.932       .  S
C580        C581   1.409       .  A
C581       Br582   1.931       .  S
C586        C587   1.414       .  A
C586        C591   1.410       .  A
C586       Br593   1.935       .  S
C587        C588   1.405       .  A
C588        C589   1.406       .  A
C588       Br595   1.927       .  S
C589        C590   1.421       .  A
C589       Br594   1.938       .  S
C590        C591   1.413       .  A
C591       Br592   1.919       .  S
C596        C597   1.418       .  A
C596        C601   1.414       .  A
C596       Br603   1.925       .  S
C597        C598   1.417       .  A
C598        C599   1.413       .  A
C598       Br605   1.924       .  S
C599        C600   1.409       .  A
C599       Br604   1.930       .  S
C600        C601   1.408       .  A
C601       Br602   1.929       .  S
C606        C607   1.409       .  A
C606        C611   1.404       .  A
C606       Br613   1.927       .  S
C607        C608   1.413       .  A
C608        C609   1.410       .  A
C608       Br615   1.927       .  S
C609        C610   1.416       .  A
C609       Br614   1.924       .  S
C610        C611   1.416       .  A
C611       Br612   1.935       .  S
C616        C617   1.411       .  A
C616        C621   1.420       .  A
C616       Br623   1.929       .  S
C617        C618   1.405       .  A
C618        C619   1.406       .  A
C618       Br625   1.935       .  S
C619        C620   1.416       .  A
C619       Br624   1.921       .  S
C620        C621   1.419       .  A
C621       Br622   1.917       .  S
C626        C627   1.418       .  A
C626        C631   1.414       .  A
C626       Br633   1.933       .  S
C627        C628   1.410       .  A
C628        C629   1.406       .  A
C628       Br635   1.938       .  S
C629        C630   1.421       .  A
C629       Br634   1.940       .  S
C630        C631   1.412       .  A
C631       Br632   1.923       .  S
C636        C637   1.413       .  A
C636        C641   1.405       .  A
C636       Br643   1.927       .  S
C637        C638   1.413       .  A
C638        C639   1.414       .  A
C638       Br645   1.930       .  S
C639        C640   1.413       .  A
C639       Br644   1.921       .  S
C640        C641   1.417       .  A
C641       Br642   1.939       .  S
C646        C647   1.417       .  A
C646        C651   1.408       .  A
C646       Br653   1.935       .  S
C647        C648   1.414       .  A
C648        C649   1.404       .  A
C648       Br655   1.937       .  S
C649        C650   1.418       .  A
C649       Br654   1.942       .  S
C650        C651   1.409       .  A
C651       Br652   1.920       .  S
C656        C657   1.411       .  A
C656        C661   1.412       .  A
C656       Br663   1.935       .  S
C657        C658   1.397       .  A
C658        C659   1.404       .  A
C658       Br665   1.934       .  S
C659        C660   1.424       .  A
C659       Br664   1.925       .  S
C660        C661   1.416       .  A
C661       Br662   1.911       .  S
C666        C667   1.415       .  A
C666        C671   1.414       .  A
C666       Br673   1.929       .  S
C667        C668   1.407       .  A
C668        C669   1.406       .  A
C668       Br675   1.933       .  S
C669        C670   1.421       .  A
C669       Br674   1.938       .  S
C670        C671   1.412       .  A
C671       Br672   1.918       .  S
C676        C677   1.408       .  A
C676        C681   1.405       .  A
C676       Br683   1.922       .  S
C677        C678   1.417       .  A
C678        C679   1.406       .  A
C678       Br685   1.942       .  S
C679        C680   1.416       .  A
C679       Br684   1.936       .  S
C680        C681   1.414       .  A
C681       Br682   1.935       .  S
C686        C687   1.409       .  A
C686        C691   1.410       .  A
C686       Br693   1.921       .  S
C687        C688   1.421       .  A
C688        C689   1.403       .  A
C688       Br695   1.934       .  S
C689        C690   1.400       .  A
C689       Br694   1.932       .  S
C690        C691   1.414       .  A
C691       Br692   1.933       .  S
C696        C697   1.419       .  A
C696        C701   1.403       .  A
C696       Br703   1.939       .  S
C697        C698   1.415       .  A
C698        C699   1.413       .  A
C698       Br705   1.919       .  S
C699        C700   1.413       .  A
C699       Br704   1.933       .  S
C700        C701   1.406       .  A
C701       Br702   1.929       .  S
