geometry optimzed in LAMMPS
_audit_creation_date              2020-11-30 
_audit_creation_method            'lammps2cif' 
_symmetry_space_group_name_H-M    'P1' 
_symmetry_Int_Tables_number       1 
_symmetry_cell_setting            triclinic 
loop_ 
_symmetry_equiv_pos_as_xyz 
  x,y,z 
_cell_length_a                    34.71729411 
_cell_length_b                    34.56789358960322 
_cell_length_c                    94.98987188217481 
_cell_angle_alpha                 90.15403771762978 
_cell_angle_beta                  90.11729998531604 
_cell_angle_gamma                 120.17013984919346 
loop_ 
_atom_site_label 
_atom_site_type_symbol 
_atom_site_fract_x 
_atom_site_fract_y 
_atom_site_fract_z 
_atom_site_charge 
O1          O  0.15881709  0.36912586  0.35587334    -0.87700
C2          C  0.19157313  0.27112079  0.34979315     0.88300
Mg3        Mg  0.09323171  0.35882982  0.35131868     1.58100
O4          O  0.23690574  0.35587552  0.32409815    -0.87400
O5          O  0.22768925  0.41260803  0.34885471    -0.74800
C6          C  0.04866681  0.26763384  0.28704413     0.93400
O7          O  0.09557812  0.26277409  0.35862647    -0.74600
O8          O  0.02814222  0.27039671  0.29776247    -0.82100
Mg9        Mg  0.16135936  0.31808503  0.36827903     1.58000
C10         C  0.22680097  0.32048578  0.28186414     0.93300
O11         O  0.22540709  0.36724073  0.38071025    -0.80400
H12         H  0.27583424  0.42037433  0.31918858    -0.05700
C13         C  0.12125239  0.24403828  0.31343613     0.88200
O14         O  0.11723470  0.39273832  0.32971636    -0.74900
O15         O  0.19929884  0.30966410  0.35188128    -0.87600
O16         O  0.24318980  0.31486669  0.29319829    -0.80400
C17         C  0.30935729  0.31333235  0.33254266     0.93400
C18         C  0.26744471  0.38477702  0.37922515     0.93300
Mg19       Mg  0.15230785  0.33301215  0.29906319     1.58000
O20         O  0.09028567  0.28211795  0.28720689    -0.80400
O21         O  0.21770457  0.38885681  0.30826307    -0.74600
O22         O  0.29939018  0.33224977  0.34228775    -0.80400
O23         O  0.12112398  0.32649527  0.38542247    -0.82100
O24         O  0.01406342  0.32055182  0.32425601    -0.80500
C25         C  0.24520734  0.38936262  0.31716949     0.87700
O26         O  0.11403494  0.34184649  0.31526125    -0.87600
O27         O  0.15378777  0.28180034  0.31155866    -0.87700
O28         O  0.08351860  0.23825796  0.31714740    -0.74800
Mg29       Mg  0.25943880  0.36881613  0.34531942     1.58000
O30         O  0.28695806  0.29978368  0.32113849    -0.82100
H31         H  0.18629572  0.43548985  0.35444383    -0.05900
O32         O  0.07496711  0.29405430  0.34254661    -0.87400
H33         H  0.03802024  0.22927971  0.34744472    -0.05700
H34         H  0.13297222  0.40404354  0.30898196    -0.05900
C35         C  0.06792240  0.26093734  0.34948402     0.87700
C36         C  0.19063104  0.40677976  0.35331010     0.88300
C37         C  0.12158566  0.38025416  0.31752237     0.88300
H38         H  0.12525356  0.21516801  0.31217976    -0.05900
O39         O  0.19503749  0.25784055  0.33763588    -0.74900
Mg40       Mg  0.05267081  0.28302868  0.32085458     1.58000
H41         H  0.18052716  0.24780236  0.35846251    -0.05900
C42         C  0.08637971  0.33000988  0.38551520     0.93300
O43         O  0.02426217  0.34859201  0.34604622    -0.82100
C44         C  0.00293032  0.33713306  0.33440305     0.93400
O45         O  0.28496935  0.38504758  0.36748954    -0.82100
Mg46       Mg  0.21857328  0.29063993  0.31592798     1.58200
O47         O  0.06877452  0.33408743  0.37418633    -0.80400
O48         O  0.19247617  0.32466314  0.28187702    -0.82100
C49         C  0.35819859  0.21321726  0.20229702    -0.10200
C50         C  0.35362141  0.17528085  0.20912484    -0.04100
C51         C  0.36198398  0.14444826  0.20224681    -0.10200
C52         C  0.37572800  0.15157685  0.18802778     0.10700
C53         C  0.37859381  0.18873009  0.18070836    -0.02000
C54         C  0.37021277  0.21992676  0.18788688     0.10500
C55         C  0.37268755  0.25608953  0.18035279    -0.12000
C56         C  0.38209964  0.26101853  0.16597182    -0.12000
C57         C  0.38990564  0.23028364  0.15864881     0.10500
C58         C  0.38907292  0.19422832  0.16611892    -0.02000
C59         C  0.38562791  0.12202734  0.18085297    -0.12100
C60         C  0.39713489  0.12809524  0.16664200    -0.12100
C61         C  0.39814100  0.16332873  0.15899140     0.10700
C62         C  0.40789440  0.16868158  0.14440950    -0.10200
C63         C  0.40625261  0.20310750  0.13724874    -0.04100
C64         C  0.39871596  0.23448978  0.14404946    -0.10200
H65         H  0.36640724  0.28039975  0.18546072     0.08000
H66         H  0.38305764  0.28906978  0.16059764     0.08000
H67         H  0.38436163  0.09375995  0.18617669     0.08200
H68         H  0.40466845  0.10449141  0.16166959     0.08200
H69         H  0.34421510  0.17004392  0.22014185     0.04600
H70         H  0.40989352  0.20514699  0.12589537     0.04600
C71         C  0.86912746  0.17289740  0.19335953    -0.10200
C72         C  0.83858679  0.13250044  0.19964149    -0.04100
C73         C  0.80510659  0.09688581  0.19199090    -0.10200
C74         C  0.80204334  0.10131327  0.17731788     0.10700
C75         C  0.83185851  0.14260050  0.17070106    -0.02000
C76         C  0.86531468  0.17870591  0.17877956     0.10500
C77         C  0.89444686  0.21899455  0.17200785    -0.12000
C78         C  0.89060793  0.22417292  0.15759722    -0.12000
C79         C  0.85749210  0.18920631  0.14938981     0.10500
C80         C  0.82817120  0.14775388  0.15598719    -0.02000
C81         C  0.76943469  0.06608183  0.16916742    -0.12100
C82         C  0.76598394  0.07105182  0.15475147    -0.12100
C83         C  0.79496249  0.11150558  0.14794023     0.10700
C84         C  0.79080465  0.11710987  0.13337364    -0.10200
C85         C  0.81992832  0.15817460  0.12705809    -0.04100
C86         C  0.85332000  0.19423611  0.13473658    -0.10200
H87         H  0.92054008  0.24687172  0.17782330     0.08000
H88         H  0.91427193  0.25586595  0.15295097     0.08000
H89         H  0.74602668  0.03439535  0.17390328     0.08200
H90         H  0.73993339  0.04291437  0.14902827     0.08200
H91         H  0.84132068  0.12847112  0.21086228     0.04600
H92         H  0.81607376  0.16221915  0.11592193     0.04600
O93         O  0.14051796  0.87266017  0.30915074    -0.87700
C94         C  0.10236905  0.74112535  0.31652181     0.88300
Mg95       Mg  0.20662597  0.92773882  0.31257047     1.58100
O96         O  0.06733658  0.78905066  0.34268368    -0.87400
O97         O  0.07350413  0.85164273  0.31693582    -0.74800
C98         C  0.26736830  0.89135776  0.37523516     0.93400
O99         O  0.19938303  0.82549207  0.30565448    -0.74600
O100        O  0.28286166  0.90682182  0.36313896    -0.82100
Mg101      Mg  0.13357516  0.81638249  0.29713204     1.58000
C102        C  0.08705764  0.76853150  0.38530392     0.93300
O103        O  0.06924006  0.80271596  0.28597249    -0.80400
H104        H  0.03335138  0.81890753  0.34857587    -0.05700
C105        C  0.18236943  0.78827263  0.35104974     0.88200
O106        O  0.18736020  0.94049405  0.33449719    -0.74900
O107        O  0.09617118  0.77276184  0.31426087    -0.87600
O108        O  0.06633556  0.74549714  0.37441807    -0.80400
C109        C  0.98670416  0.67396097  0.33684529     0.93400
C110        C  0.02710959  0.78083445  0.28760833     0.93300
Mg111      Mg  0.15983458  0.85215385  0.36635868     1.58000
O112        O  0.22562567  0.86697928  0.37744027    -0.80400
O113        O  0.09313431  0.84285504  0.35836064    -0.74600
O114        O  0.99498154  0.70113082  0.32667657    -0.80400
O115        O  0.17343486  0.86208915  0.27904490    -0.82100
O116        O  0.29369875  0.96970186  0.33725662    -0.80500
C117        C  0.06299314  0.81644704  0.34986596     0.87700
O118        O  0.19498696  0.89586338  0.34910808    -0.87600
O119        O  0.15207851  0.79582082  0.35402478    -0.87700
O120        O  0.21923541  0.81829079  0.34597954    -0.74800
Mg121      Mg  0.03925617  0.77664519  0.32174381     1.58000
O122        O  0.01325134  0.68338604  0.34727500    -0.82100
H123        H  0.11638318  0.91428959  0.31000590    -0.05900
O124        O  0.22479513  0.88092889  0.32077442    -0.87400
H125        H  0.25921782  0.85100287  0.31548471    -0.05700
H126        H  0.17773657  0.94013683  0.35556620    -0.05900
C127        C  0.22946014  0.85310129  0.31393248     0.87700
C128        C  0.11043492  0.88082194  0.31173094     0.88300
C129        C  0.18686520  0.92625543  0.34684554     0.88300
H130        H  0.17685496  0.75482956  0.35242445    -0.05900
O131        O  0.10134530  0.72677045  0.32888561    -0.74900
Mg132      Mg  0.25245432  0.89377338  0.34145867     1.58000
H133        H  0.11013632  0.72611601  0.30779130    -0.05900
C134        C  0.20926303  0.89988230  0.27863115     0.93300
O135        O  0.27584349  0.98796854  0.31675769    -0.82100
C136        C  0.30096902  0.99802110  0.32755529     0.93400
O137        O  0.00927588  0.76491499  0.29950693    -0.82100
Mg138      Mg  0.08445119  0.74124615  0.35096766     1.58200
O139        O  0.22709011  0.92323303  0.28971086    -0.80400
O140        O  0.12258055  0.80629946  0.38438801    -0.82100
O141        O  0.71907805  0.84213894  0.31134197    -0.87700
C142        C  0.62167632  0.87138500  0.32047220     0.88300
Mg143      Mg  0.71198313  0.77821614  0.31550116     1.58100
O144        O  0.71227964  0.91905109  0.34417520    -0.87400
O145        O  0.76401839  0.91200527  0.31738960    -0.74800
C146        C  0.63138538  0.72883461  0.38082464     0.93400
O147        O  0.61264737  0.77551962  0.31037672    -0.74600
O148        O  0.62880654  0.70862550  0.36931956    -0.82100
Mg149      Mg  0.66443692  0.84152508  0.30030660     1.58000
C150        C  0.68399751  0.90818316  0.38769973     0.93300
O151        O  0.70876222  0.90424031  0.28752664    -0.80400
H152        H  0.77742380  0.95825576  0.34798065    -0.05700
C153        C  0.60368438  0.80289455  0.35638730     0.88200
O154        O  0.74987398  0.80330888  0.33644479    -0.74900
O155        O  0.65951559  0.87944733  0.31736253    -0.87600
O156        O  0.67705296  0.92524772  0.37673678    -0.80400
C157        C  0.66604644  0.98907791  0.33752477     0.93400
C158        C  0.72448761  0.94626692  0.28840380     0.93300
Mg159      Mg  0.69554522  0.83453312  0.36915313     1.58000
O160        O  0.64981457  0.77125887  0.38156851    -0.80400
O161        O  0.74810097  0.90061996  0.35919498    -0.74600
O162        O  0.68099199  0.97762555  0.32707173    -0.80400
O163        O  0.66944404  0.80144183  0.28234194    -0.82100
O164        O  0.67613253  0.69392072  0.34158380    -0.80500
C165        C  0.74696859  0.92764051  0.35041032     0.87700
O166        O  0.70099119  0.79580726  0.35232725    -0.87600
O167        O  0.64156408  0.83540338  0.35802012    -0.87700
O168        O  0.59721228  0.76540571  0.35190367    -0.74800
Mg169      Mg  0.71914227  0.94102591  0.32267849     1.58000
O170        O  0.65750500  0.96892930  0.34932204    -0.82100
H171        H  0.78534001  0.87046300  0.31041146    -0.05900
O172        O  0.64893887  0.75794449  0.32546257    -0.87400
H173        H  0.58390593  0.71806209  0.32166105    -0.05700
H174        H  0.76467677  0.81732812  0.35717207    -0.05900
C175        C  0.61415553  0.74884472  0.31920392     0.87700
C176        C  0.75712402  0.87457385  0.31273173     0.88300
C177        C  0.73924097  0.80540451  0.34908963     0.88300
H178        H  0.57523927  0.80686765  0.35843083    -0.05900
O179        O  0.61160706  0.87551109  0.33301109    -0.74900
Mg180      Mg  0.64062713  0.73434910  0.34669126     1.58000
H181        H  0.59626612  0.85959827  0.31238341    -0.05900
C182        C  0.67325580  0.76673866  0.28223239     0.93300
O183        O  0.70614109  0.71163812  0.32011543    -0.82100
C184        C  0.69431239  0.68680132  0.33094134     0.93400
O185        O  0.72777302  0.96570243  0.30009692    -0.82100
Mg186      Mg  0.64932177  0.90034226  0.35407424     1.58200
O187        O  0.68155632  0.75170366  0.29338962    -0.80400
O188        O  0.68941091  0.87449188  0.38699357    -0.82100
C189        C  0.86017067  0.72563693  0.19164496    -0.10200
C190        C  0.82400374  0.72738656  0.19749022    -0.04100
C191        C  0.79002006  0.72605121  0.18924944    -0.10200
C192        C  0.79125276  0.72168060  0.17450024     0.10700
C193        C  0.82567110  0.71635250  0.16834167    -0.02000
C194        C  0.86011398  0.71793039  0.17693170     0.10500
C195        C  0.89348556  0.71227026  0.17051114    -0.12000
C196        C  0.89260601  0.70417441  0.15603138    -0.12000
C197        C  0.85913892  0.70285566  0.14733755     0.10500
C198        C  0.82562325  0.70959023  0.15354489    -0.02000
C199        C  0.75846741  0.72155096  0.16579189    -0.12100
C200        C  0.75899634  0.71592734  0.15130954    -0.12100
C201        C  0.79160002  0.70896082  0.14500779     0.10700
C202        C  0.79158861  0.70208489  0.13033478    -0.10200
C203        C  0.82482761  0.69594117  0.12442565    -0.04100
C204        C  0.85753827  0.69433357  0.13263955    -0.10200
H205        H  0.92038744  0.71355203  0.17664618     0.08000
H206        H  0.91865350  0.69932207  0.15166966     0.08000
H207        H  0.73192953  0.72570657  0.17009839     0.08200
H208        H  0.73339636  0.71699110  0.14510183     0.08200
H209        H  0.82269378  0.73099184  0.20879164     0.04600
H210        H  0.82417057  0.69047039  0.11314618     0.04600
O211        O  0.52590338  0.01449484  0.97637501    -0.87700
C212        C  0.39908866  0.92682515  0.98998192     0.88300
Mg213      Mg  0.58237594  0.00851144  0.98258636     1.58100
O214        O  0.44937613  0.03191926  0.00697152    -0.87400
O215        O  0.50360693  0.06337196  0.97830357    -0.74800
C216        C  0.56288796  0.97815995  0.05175715     0.93400
O217        O  0.48351965  0.90964474  0.98270944    -0.74600
O218        O  0.58055041  0.97039068  0.04120486    -0.82100
Mg219      Mg  0.46891226  0.95435967  0.96834963     1.58000
C220        C  0.44201171  0.03795226  0.05060575     0.93300
O221        O  0.44756724  0.98924917  0.95184280    -0.80400
H222        H  0.47796630  0.09854140  0.00621953    -0.05700
C223        C  0.45503632  0.93216104  0.02761276     0.88200
O224        O  0.60006133  0.06048631  0.00024174    -0.74900
O225        O  0.42902628  0.96141004  0.98457732    -0.87600
O226        O  0.41636297  0.02468161  0.03984034    -0.80400
C227        C  0.33160003  0.98539909  0.00169330     0.93400
C228        C  0.42225296  0.00611673  0.95139033     0.93300
Mg229      Mg  0.51873313  0.02922655  0.03419955     1.58000
O230        O  0.53329088  0.98919090  0.05033200    -0.80400
O231        O  0.50654943  0.07611874  0.02018969    -0.74600
O232        O  0.35603807  0.99260875  0.99090146    -0.80400
O233        O  0.51174308  0.94721498  0.95133709    -0.82100
O234        O  0.63313298  0.99378030  0.01229204    -0.80500
C235        C  0.47740156  0.06989495  0.01098054     0.87700
O236        O  0.55903425  0.02341582  0.01825439    -0.87600
O237        O  0.46142626  0.97050898  0.02615068    -0.87700
O238        O  0.48519861  0.92258132  0.02492873    -0.74800
Mg239      Mg  0.43046009  0.02464121  0.98527019     1.58000
O240        O  0.34521848  0.98439997  0.01408716    -0.82100
H241        H  0.56496048  0.07890516  0.97138028    -0.05900
O242        O  0.53960715  0.95397392  0.99628229    -0.87400
H243        H  0.51163583  0.88741402  0.99692563    -0.05700
H244        H  0.60355908  0.08883507  0.01929489    -0.05900
C245        C  0.51209619  0.91599270  0.99214930     0.87700
C246        C  0.53273764  0.05300612  0.97501549     0.88300
C247        C  0.58835765  0.05862373  0.01299521     0.88300
H248        H  0.42268891  0.90590012  0.03102808    -0.05900
O249        O  0.38701755  0.92604555  0.00266505    -0.74900
Mg250      Mg  0.55901311  0.96153274  0.01808031     1.58000
H251        H  0.38328891  0.89628936  0.98384347    -0.05900
C252        C  0.54906222  0.94868575  0.95247508     0.93300
O253        O  0.64329099  0.00384688  0.98912784    -0.82100
C254        C  0.65728413  0.00201880  0.00138217     0.93400
O255        O  0.41068061  0.01845064  0.96241915    -0.82100
Mg256      Mg  0.40539678  0.97798748  0.02053867     1.58200
O257        O  0.57280319  0.96274348  0.96361674    -0.80400
O258        O  0.47806241  0.03701281  0.05099194    -0.82100
O259        O  0.55353802  0.49537771  0.02114008    -0.87700
C260        C  0.42332276  0.46112069  0.01512042     0.88300
Mg261      Mg  0.61024495  0.55728137  0.01495371     1.58100
O262        O  0.46063790  0.40564005  0.99259500    -0.87400
O263        O  0.52662311  0.42328994  0.01848020    -0.74800
C264        C  0.56124820  0.58297700  0.94943093     0.93400
O265        O  0.51311951  0.56086308  0.02029836    -0.74600
O266        O  0.58510404  0.60733305  0.95962092    -0.82100
Mg267      Mg  0.50262953  0.49957175  0.03269708     1.58000
C268        C  0.43360193  0.40393154  0.94914875     0.93300
O269        O  0.49083457  0.44261537  0.04710931    -0.80400
H270        H  0.48740810  0.36678748  0.98972991    -0.05700
C271        C  0.46728690  0.51959004  0.97702563     0.88200
O272        O  0.61813562  0.52492516  0.99491067    -0.74900
O273        O  0.45410874  0.45429485  0.01791920    -0.87600
O274        O  0.41175725  0.39054613  0.96063692    -0.80400
C275        C  0.34649657  0.33676736  0.00149484     0.93400
C276        C  0.46557177  0.40078032  0.04875054     0.93300
Mg277      Mg  0.52291677  0.48289356  0.96485188     1.58000
O278        O  0.53507253  0.54108930  0.95068715    -0.80400
O279        O  0.51239631  0.42075147  0.97686245    -0.74600
O280        O  0.37472568  0.34950279  0.01157998    -0.80400
O281        O  0.55232855  0.54686773  0.04873115    -0.82100
O282        O  0.65317980  0.63185003  0.98623967    -0.80500
C283        C  0.48620488  0.39610638  0.98647222     0.87700
O284        O  0.57200222  0.52707009  0.97971248    -0.87600
O285        O  0.47166022  0.48621634  0.97663337    -0.87700
O286        O  0.50002396  0.55855108  0.97951472    -0.74800
Mg287      Mg  0.45109894  0.39096112  0.01484863     1.58000
O288        O  0.35562920  0.35664040  0.98963258    -0.82100
H289        H  0.59156235  0.46733629  0.02286359    -0.05900
O290        O  0.56578418  0.57558333  0.00493756    -0.87400
H291        H  0.53907036  0.61464168  0.00735951    -0.05700
H292        H  0.61276073  0.50409291  0.97464362    -0.05900
C293        C  0.54001877  0.58535388  0.01081451     0.87700
C294        C  0.55865467  0.46246896  0.02106313     0.88300
C295        C  0.60166336  0.51861957  0.98262285     0.88300
H296        H  0.43455131  0.51541572  0.97547584    -0.05900
O297        O  0.40619844  0.45370017  0.00291060    -0.74900
Mg298      Mg  0.57597250  0.59081492  0.98303323     1.58000
H299        H  0.41156271  0.47491254  0.02313589    -0.05900
C300        C  0.59087818  0.58117528  0.04757717     0.93300
O301        O  0.67077275  0.62121204  0.00796220    -0.82100
C302        C  0.68124661  0.64200273  0.99631191     0.93400
O303        O  0.44199362  0.37508635  0.03870836    -0.82100
Mg304      Mg  0.41483366  0.42280515  0.98260744     1.58200
O305        O  0.61198770  0.59169988  0.03597045    -0.80400
O306        O  0.47282013  0.43738334  0.94876306    -0.82100
O307        O  0.01269501  0.52598086  0.02744931    -0.87700
C308        C  0.92181426  0.40462841  0.00994363     0.88300
Mg309      Mg  0.01269474  0.58648250  0.02198270     1.58100
O310        O  0.02855442  0.45158414  0.99522037    -0.87400
O311        O  0.05799860  0.49954507  0.02512770    -0.74800
C312        C  0.99701954  0.58487451  0.95177549     0.93400
O313        O  0.91045749  0.49053766  0.01862460    -0.74600
O314        O  0.98439040  0.59525245  0.96299041    -0.82100
Mg315      Mg  0.94896579  0.46876520  0.03314181     1.58000
C316        C  0.04353711  0.44763423  0.95179992     0.93300
O317        O  0.97674388  0.43963909  0.04980034    -0.80400
H318        H  0.09358950  0.47282583  0.99699232    -0.05700
C319        C  0.93908057  0.46901861  0.97291724     0.88200
O320        O  0.06590910  0.60234480  0.00479505    -0.74900
O321        O  0.95620399  0.43082936  0.01641914    -0.87600
O322        O  0.02533416  0.42298828  0.96249661    -0.80400
C323        C  0.97478614  0.33177489  0.99815888     0.93400
C324        C  0.99210346  0.41292449  0.04991523     0.93300
Mg325      Mg  0.03976026  0.52840496  0.96815717     1.58000
O326        O  0.01122339  0.55720611  0.95171998    -0.80400
O327        O  0.07856135  0.50683452  0.98269695    -0.74600
O328        O  0.98202760  0.35442626  0.00943132    -0.80400
O329        O  0.94052125  0.50921103  0.05033194    -0.82100
O330        O  0.00978223  0.64463736  0.99248856    -0.80500
C331        C  0.06778579  0.47642951  0.99183892     0.87700
O332        O  0.03323124  0.56696347  0.98520373    -0.87600
O333        O  0.97611979  0.47262683  0.97451960    -0.87700
O334        O  0.93107149  0.49939170  0.97690010    -0.74800
Mg335      Mg  0.01689758  0.42803494  0.01646589     1.58000
O336        O  0.97610099  0.34833857  0.98609112    -0.82100
H337        H  0.07642375  0.56040727  0.03355983    -0.05900
O338        O  0.96066398  0.54801590  0.00691133    -0.87400
H339        H  0.89553775  0.52582846  0.00482080    -0.05700
H340        H  0.09918714  0.60741160  0.98669733    -0.05900
C341        C  0.92134550  0.52220718  0.00996751     0.87700
C342        C  0.04977059  0.52975838  0.02909685     0.88300
C343        C  0.06726054  0.59289536  0.99189566     0.88300
H344        H  0.91227925  0.43839389  0.96849463    -0.05900
O345        O  0.92233625  0.39560623  0.99698171    -0.74900
Mg346      Mg  0.97316663  0.57097001  0.98546209     1.58000
H347        H  0.89024340  0.38991624  0.01536699    -0.05900
C348        C  0.94645858  0.54864151  0.05099286     0.93300
O349        O  0.01350637  0.65136566  0.01589343    -0.82100
C350        C  0.01648827  0.66772673  0.00364581     0.93400
O351        O  0.00594993  0.40337529  0.03881729    -0.82100
Mg352      Mg  0.97657747  0.41280834  0.98029518     1.58200
O353        O  0.96612912  0.57737462  0.04120032    -0.80400
O354        O  0.04710726  0.48609085  0.95050689    -0.82100
O355        O  0.38028892  0.16773850  0.64399150    -0.87700
C356        C  0.27501749  0.18862669  0.64840956     0.88300
Mg357      Mg  0.37677786  0.10592258  0.64948615     1.58100
O358        O  0.35762849  0.23950782  0.67480096    -0.87400
O359        O  0.41967529  0.23805735  0.65025135    -0.74800
C360        C  0.27817796  0.04930569  0.71198202     0.93400
O361        O  0.27650918  0.09618923  0.63999213    -0.74600
O362        O  0.28024846  0.03140943  0.70050643    -0.82100
Mg363      Mg  0.32809342  0.16370575  0.63057019     1.58000
C364        C  0.31817209  0.22814168  0.71692375     0.93300
O365        O  0.37273197  0.22876073  0.61831604    -0.80400
H366        H  0.42063887  0.28134198  0.68064725    -0.05700
C367        C  0.24964701  0.11927705  0.68511055     0.88200
O368        O  0.40682248  0.13289214  0.67132530    -0.74900
O369        O  0.31459719  0.20035341  0.64649285    -0.87600
O370        O  0.31338262  0.24269487  0.70509876    -0.80400
C371        C  0.30945373  0.30742816  0.66613738     0.93400
C372        C  0.38570730  0.27035151  0.61945777     0.93300
Mg373      Mg  0.33742310  0.15606042  0.70106349     1.58000
O374        O  0.29135925  0.09094016  0.71298664    -0.80400
O375        O  0.38992315  0.22374274  0.69186327    -0.74600
O376        O  0.33167993  0.30135389  0.65655661    -0.80400
O377        O  0.34212799  0.12436354  0.61379714    -0.82100
O378        O  0.33657124  0.02156088  0.67548231    -0.80500
C379        C  0.39039362  0.24982011  0.68238243     0.87700
O380        O  0.35155756  0.12030953  0.68526610    -0.87600
O381        O  0.28597834  0.15314793  0.68752333    -0.87700
O382        O  0.24681853  0.08288677  0.68106801    -0.74800
Mg383      Mg  0.37077838  0.26357200  0.65350743     1.58000
O384        O  0.29450630  0.28200631  0.67682769    -0.82100
H385        H  0.44678910  0.20002775  0.64491023    -0.05900
O386        O  0.30975873  0.08143874  0.65699177    -0.87400
H387        H  0.24691871  0.03864658  0.65123760    -0.05700
H388        H  0.41415519  0.14671617  0.69224762    -0.05900
C389        C  0.27679750  0.07043914  0.64944128     0.87700
C390        C  0.41671109  0.20172723  0.64611717     0.88300
C391        C  0.39144462  0.13322051  0.68341387     0.88300
H392        H  0.21955645  0.12108058  0.68603817    -0.05900
O393        O  0.26028569  0.19004857  0.66051396    -0.74900
Mg394      Mg  0.29588973  0.05726918  0.67816973     1.58000
H395        H  0.25206253  0.17557128  0.63962465    -0.05900
C396        C  0.34828561  0.09110390  0.61503490     0.93300
O397        O  0.37535301  0.04151313  0.65550293    -0.82100
C398        C  0.36037775  0.01647100  0.66626489     0.93400
O399        O  0.38478274  0.28824666  0.63107943    -0.82100
Mg400      Mg  0.29090566  0.21607860  0.68241753     1.58200
O401        O  0.35457467  0.07832553  0.62697576    -0.80400
O402        O  0.32313234  0.19415652  0.71784988    -0.82100
C403        C  0.20481241  0.31486302  0.86708085    -0.10200
C404        C  0.17704637  0.32872536  0.87316643    -0.04100
C405        C  0.14361582  0.33093002  0.86547228    -0.10200
C406        C  0.13724332  0.31794508  0.85104974     0.10700
C407        C  0.16603724  0.30510282  0.84454148    -0.02000
C408        C  0.20012514  0.30394798  0.85256092     0.10500
C409        C  0.22961565  0.29345490  0.84574323    -0.12000
C410        C  0.22615734  0.28464492  0.83132859    -0.12000
C411        C  0.19208065  0.28439147  0.82323139     0.10500
C412        C  0.16110906  0.29387098  0.82992883    -0.02000
C413        C  0.10260291  0.31680833  0.84299252    -0.12100
C414        C  0.09645707  0.30370570  0.82883400    -0.12100
C415        C  0.12544487  0.29240894  0.82204025     0.10700
C416        C  0.12045101  0.28057290  0.80752358    -0.10200
C417        C  0.15256901  0.27320750  0.80110603    -0.04100
C418        C  0.18858806  0.27576393  0.80856590    -0.10200
H419        H  0.25646680  0.29309990  0.85144178     0.08000
H420        H  0.25055980  0.27796093  0.82660800     0.08000
H421        H  0.07945429  0.32544565  0.84762783     0.08200
H422        H  0.06929076  0.30348913  0.82315499     0.08200
H423        H  0.18213905  0.33860905  0.88415833     0.04600
H424        H  0.14853915  0.26328242  0.79011988     0.04600
C425        C  0.21025095  0.86665275  0.86563268    -0.10200
C426        C  0.17717766  0.82887790  0.87262235    -0.04100
C427        C  0.13774785  0.79730474  0.86585100    -0.10200
C428        C  0.13077209  0.80401658  0.85156142     0.10700
C429        C  0.16353440  0.84262776  0.84438581    -0.02000
C430        C  0.20348135  0.87385980  0.85140424     0.10500
C431        C  0.23537390  0.91179711  0.84405784    -0.12000
C432        C  0.22848667  0.91891967  0.83008128    -0.12000
C433        C  0.18941531  0.88846514  0.82291884     0.10500
C434        C  0.15658746  0.84978526  0.83008782    -0.02000
C435        C  0.09175097  0.77343609  0.84427919    -0.12100
C436        C  0.08532668  0.78000905  0.83018153    -0.12100
C437        C  0.11722945  0.81786128  0.82289719     0.10700
C438        C  0.11146102  0.82456200  0.80853744    -0.10200
C439        C  0.14325462  0.86371313  0.80195564    -0.04100
C440        C  0.18248391  0.89503540  0.80867543    -0.10200
H441        H  0.26591774  0.93667372  0.84907536     0.08000
H442        H  0.25418909  0.94853402  0.82491101     0.08000
H443        H  0.06561737  0.74406548  0.84940691     0.08200
H444        H  0.05496945  0.75520709  0.82504213     0.08200
H445        H  0.18340231  0.82268476  0.88333900     0.04600
H446        H  0.13746745  0.86977712  0.79116120     0.04600
O447        O  0.83266424  0.21524171  0.64488166    -0.87700
C448        C  0.80729876  0.08629629  0.64519256     0.88300
Mg449      Mg  0.89611107  0.26963070  0.65183594     1.58100
O450        O  0.75578967  0.11156484  0.67263070    -0.87400
O451        O  0.76249006  0.18445590  0.65089111    -0.74800
C452        C  0.94043444  0.20798064  0.71339489     0.93400
O453        O  0.90043217  0.17918812  0.63924294    -0.74600
O454        O  0.95842413  0.22818942  0.70201280    -0.82100
Mg455      Mg  0.83488768  0.16923059  0.62983005     1.58000
C456        C  0.75843681  0.06916235  0.71356033     0.93300
O457        O  0.77174953  0.15568474  0.61739999    -0.80400
H458        H  0.71399852  0.13159938  0.67927021    -0.05700
C459        C  0.87117422  0.11525932  0.68347739     0.88200
O460        O  0.86793320  0.26816898  0.67393556    -0.74900
O461        O  0.79646295  0.11523457  0.64414045    -0.87600
O462        O  0.74604861  0.05371921  0.70112481    -0.80400
C463        C  0.68753325  0.99935275  0.65962479     0.93400
C464        C  0.72968833  0.12921322  0.61785263     0.93300
Mg465      Mg  0.83498989  0.16451840  0.70104345     1.58000
O466        O  0.89859645  0.18025381  0.71422413    -0.80400
O467        O  0.76951861  0.15363658  0.69132741    -0.74600
O468        O  0.69707234  0.03125913  0.65106981    -0.80400
O469        O  0.87593838  0.22636132  0.61485438    -0.82100
O470        O  0.97204561  0.30126824  0.67972738    -0.80500
C471        C  0.74482496  0.13168366  0.68100090     0.87700
O472        O  0.87340188  0.21801136  0.68650965    -0.87600
O473        O  0.83810633  0.11859059  0.68607830    -0.87700
O474        O  0.90820880  0.14898063  0.68013757    -0.74800
Mg475      Mg  0.73426084  0.10847715  0.65121881     1.58000
O476        O  0.70922942  0.00524471  0.67103671    -0.82100
H477        H  0.80278906  0.25116074  0.64793114    -0.05900
O478        O  0.91449794  0.22116408  0.65797836    -0.87400
H479        H  0.95588167  0.20062735  0.65130833    -0.05700
H480        H  0.84976155  0.25556040  0.69445875    -0.05900
C481        C  0.92520580  0.20085395  0.64959583     0.87700
C482        C  0.79960890  0.21840409  0.64770472     0.88300
C483        C  0.86351948  0.24763163  0.68544259     0.88300
H484        H  0.86801148  0.08250891  0.68352118    -0.05900
O485        O  0.80399001  0.06627780  0.65672670    -0.74900
Mg486      Mg  0.93548907  0.22460898  0.67952789     1.58000
H487        H  0.82125914  0.07876976  0.63614162    -0.05900
C488        C  0.91060982  0.26442405  0.61686410     0.93300
O489        O  0.96324982  0.32774591  0.65935417    -0.82100
C490        C  0.98352646  0.33313204  0.67103689     0.93400
O491        O  0.71045866  0.10652336  0.62877697    -0.82100
Mg492      Mg  0.77537416  0.06405747  0.67875495     1.58200
O493        O  0.92486993  0.27988203  0.62920123    -0.80400
O494        O  0.79280044  0.10726109  0.71594002    -0.82100
O495        O  0.85424907  0.72140664  0.68892312    -0.87700
C496        C  0.87404084  0.61677159  0.68085569     0.88300
Mg497      Mg  0.79101048  0.71705557  0.68564674     1.58100
O498        O  0.92042633  0.70236258  0.65535157    -0.87400
O499        O  0.92315323  0.76155896  0.68166916    -0.74800
C500        C  0.72281149  0.62421886  0.62254394     0.93400
O501        O  0.78425422  0.61652593  0.69239494    -0.74600
O502        O  0.70590275  0.62431649  0.63440448    -0.82100
Mg503      Mg  0.85324552  0.66818284  0.70097788     1.58000
C504        C  0.89686047  0.66485519  0.61241729     0.93300
O505        O  0.91981629  0.71321130  0.71204764    -0.80400
H506        H  0.96057194  0.76647859  0.65022755    -0.05700
C507        C  0.79808560  0.59521553  0.64589626     0.88200
O508        O  0.81272911  0.75073098  0.66409569    -0.74900
O509        O  0.88625233  0.65625373  0.68358698    -0.87600
O510        O  0.91521743  0.65857143  0.62318103    -0.80400
C511        C  0.98733010  0.65152246  0.66044433     0.93400
C512        C  0.96105284  0.72642577  0.71048835     0.93300
Mg513      Mg  0.83132768  0.68555844  0.63184259     1.58000
O514        O  0.76456034  0.64053132  0.62091929    -0.80400
O515        O  0.90056471  0.73714634  0.64032215    -0.74600
O516        O  0.98339821  0.67229341  0.67101869    -0.80400
O517        O  0.81808760  0.68050707  0.71950259    -0.82100
O518        O  0.70144629  0.67924102  0.66139877    -0.80500
C519        C  0.92882500  0.73629163  0.64863932     0.87700
O520        O  0.79842167  0.69710140  0.64902975    -0.87600
O521        O  0.83117589  0.63217239  0.64360070    -0.87700
O522        O  0.76259481  0.59138863  0.65101706    -0.74800
Mg523      Mg  0.94808744  0.71288220  0.67635482     1.58000
O524        O  0.96053541  0.63905282  0.65002599    -0.82100
H525        H  0.88626321  0.78825766  0.68863930    -0.05900
O526        O  0.76594576  0.65120866  0.67686264    -0.87400
H527        H  0.72483744  0.58742593  0.68214048    -0.05700
H528        H  0.82174727  0.76039163  0.64303230    -0.05900
C529        C  0.75670750  0.61742057  0.68377876     0.87700
C530        C  0.88768765  0.75817889  0.68668132     0.88300
C531        C  0.81077335  0.73672615  0.65160297     0.88300
H532        H  0.79992377  0.56536932  0.64393011    -0.05900
O533        O  0.87318652  0.60346979  0.66832217    -0.74900
Mg534      Mg  0.73711605  0.63945672  0.65626300     1.58000
H535        H  0.86265928  0.59269177  0.68931286    -0.05900
C536        C  0.78356505  0.68456827  0.71933828     0.93300
O537        O  0.72490692  0.71385935  0.68212331    -0.82100
C538        C  0.69764687  0.70042332  0.67184381     0.93400
O539        O  0.97741803  0.72529055  0.69859531    -0.82100
Mg540      Mg  0.89442657  0.63604025  0.64649264     1.58200
O541        O  0.76786312  0.69062554  0.70797054    -0.80400
O542        O  0.86493733  0.67269193  0.61355207    -0.82100
C543        C  0.64653446  0.78466126  0.86103106    -0.10200
C544        C  0.63418508  0.81350335  0.86722209    -0.04100
C545        C  0.63875249  0.85116540  0.86028708    -0.10200
C546        C  0.65479559  0.85949760  0.84627626     0.10700
C547        C  0.66776371  0.83060768  0.83978521    -0.02000
C548        C  0.66423989  0.79344813  0.84728646     0.10500
C549        C  0.67751700  0.76554972  0.84074236    -0.12000
C550        C  0.69389770  0.77376968  0.82704836    -0.12000
C551        C  0.69731843  0.81001127  0.81933797     0.10500
C552        C  0.68418065  0.83878344  0.82575560    -0.02000
C553        C  0.65892018  0.89612958  0.83866116    -0.12100
C554        C  0.67443451  0.90378202  0.82483579    -0.12100
C555        C  0.68712082  0.87549335  0.81815296     0.10700
C556        C  0.70171405  0.88226201  0.80398108    -0.10200
C557        C  0.71387223  0.85306161  0.79777976    -0.04100
C558        C  0.71243589  0.81752620  0.80525306    -0.10200
H559        H  0.67489275  0.73674236  0.84610741     0.08000
H560        H  0.70315786  0.75089998  0.82247216     0.08000
H561        H  0.64984138  0.91905837  0.84329431     0.08200
H562        H  0.67594288  0.93196950  0.81940582     0.08200
H563        H  0.62123064  0.80679735  0.87786779     0.04600
H564        H  0.72637558  0.85910674  0.78708165     0.04600
C565        C  0.98993720  0.46660268  0.46657787    -0.10200
C566        C  0.99499472  0.50485440  0.45982657    -0.04100
C567        C  0.99360893  0.53924122  0.46722404    -0.10200
C568        C  0.98813846  0.53599912  0.48203818     0.10700
C569        C  0.98320353  0.49758253  0.48913233    -0.02000
C570        C  0.98332363  0.46242386  0.48134798     0.10500
C571        C  0.97800365  0.42464442  0.48859527    -0.12000
C572        C  0.97254430  0.42122178  0.50317535    -0.12000
C573        C  0.97249554  0.45558701  0.51112952     0.10500
C574        C  0.97833872  0.49442058  0.50405634    -0.02000
C575        C  0.98853475  0.57057996  0.48998438    -0.12100
C576        C  0.98438600  0.56776737  0.50460809    -0.12100
C577        C  0.97936377  0.53012707  0.51186518     0.10700
C578        C  0.97426380  0.52667731  0.52668644    -0.10200
C579        C  0.96854169  0.48818331  0.53341293    -0.04100
C580        C  0.96766810  0.45265818  0.52598667    -0.10200
H581        H  0.97836903  0.39742726  0.48305853     0.08000
H582        H  0.96904999  0.39154420  0.50817119     0.08000
H583        H  0.99260494  0.60047595  0.48496584     0.08200
H584        H  0.98491558  0.59537530  0.51018495     0.08200
H585        H  0.99862123  0.50721522  0.44846920     0.04600
H586        H  0.96409836  0.48568647  0.54473608     0.04600
C587        C  0.52318244  0.55880666  0.47301935    -0.10200
C588        C  0.48437521  0.52794370  0.46589516    -0.04100
C589        C  0.45309088  0.48708658  0.47179121    -0.10200
C590        C  0.46042405  0.47642679  0.48552202     0.10700
C591        C  0.49978920  0.50701903  0.49297446    -0.02000
C592        C  0.53145094  0.54819508  0.48667120     0.10500
C593        C  0.56996218  0.57783326  0.49428697    -0.12000
C594        C  0.57732285  0.56753814  0.50786133    -0.12000
C595        C  0.54636981  0.52727914  0.51436280     0.10500
C596        C  0.50742166  0.49641560  0.50677686    -0.02000
C597        C  0.43000439  0.43569130  0.49187625    -0.12100
C598        C  0.43750989  0.42529487  0.50538498    -0.12100
C599        C  0.47581612  0.45513986  0.51301842     0.10700
C600        C  0.48282839  0.44547980  0.52689948    -0.10200
C601        C  0.52117274  0.47624639  0.53416115    -0.04100
C602        C  0.55333667  0.51667725  0.52818851    -0.10200
H603        H  0.59464036  0.60950554  0.48985474     0.08000
H604        H  0.60763576  0.59149694  0.51320659     0.08000
H605        H  0.40005663  0.41135454  0.48645136     0.08200
H606        H  0.41277715  0.39367929  0.50983935     0.08200
H607        H  0.47843086  0.53572090  0.45535088     0.04600
H608        H  0.52551686  0.46861522  0.54490533     0.04600
C609        C  0.53903239  0.99417975  0.46833349    -0.10200
C610        C  0.49876279  0.97812173  0.46102244    -0.04100
C611        C  0.46183805  0.97827010  0.46692660    -0.10200
C612        C  0.46471832  0.99362946  0.48097822     0.10700
C613        C  0.50507321  0.00930601  0.48871590    -0.02000
C614        C  0.54245502  0.01002786  0.48231662     0.10500
C615        C  0.58195000  0.02577329  0.49016112    -0.12000
C616        C  0.58485066  0.04031650  0.50404185    -0.12000
C617        C  0.54832222  0.03960540  0.51067863     0.10500
C618        C  0.50813167  0.02449839  0.50287328    -0.02000
C619        C  0.42876361  0.99462903  0.48742208    -0.12100
C620        C  0.43179053  0.00961338  0.50125367    -0.12100
C621        C  0.47096052  0.02444859  0.50919457     0.10700
C622        C  0.47371066  0.03823946  0.52339866    -0.10200
C623        C  0.51333052  0.05235961  0.53089393    -0.04100
C624        C  0.55096654  0.05411737  0.52483088    -0.10200
H625        H  0.61097920  0.02661935  0.48566221     0.08000
H626        H  0.61623004  0.05229628  0.50949419     0.08000
H627        H  0.39780442  0.98387301  0.48183928     0.08200
H628        H  0.40287698  0.00908329  0.50572057     0.08200
H629        H  0.49641633  0.96588476  0.45035146     0.04600
H630        H  0.51464693  0.06209252  0.54181319     0.04600
C631        C  0.99710840  0.04054456  0.99401662     0.02900
C632        C  0.03801875  0.04292425  0.99736109     0.02900
C633        C  0.03872850  0.00301960  0.00041777     0.02900
C634        C  0.99845109  0.96095247  0.00010188     0.02900
C635        C  0.95756282  0.95874015  0.99659597     0.02900
C636        C  0.95704758  0.99873496  0.99378963     0.02900
C637        C  0.65348307  0.28456681  0.34162937     0.02900
C638        C  0.69482365  0.32526313  0.34149737     0.02900
C639        C  0.69578031  0.36653683  0.34008349     0.02900
C640        C  0.65503008  0.36697128  0.33953580     0.02900
C641        C  0.61365723  0.32601174  0.33900423     0.02900
C642        C  0.61295012  0.28457647  0.33980130     0.02900
C643        C  0.33919784  0.70615295  0.66808532     0.02900
C644        C  0.29774546  0.66563345  0.66724075     0.02900
C645        C  0.29665241  0.62414596  0.66560685     0.02900
C646        C  0.33712743  0.62308199  0.66517518     0.02900
C647        C  0.37854508  0.66378070  0.66616245     0.02900
C648        C  0.37966145  0.70534878  0.66755450     0.02900
C649        C  0.17966091  0.65252850  0.66313257     0.19300
C650        C  0.13847900  0.61840724  0.65800157    -0.18800
C651        C  0.09964085  0.62085987  0.65970043    -0.11000
C652        C  0.10122286  0.65807567  0.66639383     0.21600
C653        C  0.14240096  0.69201888  0.67161697    -0.20400
C654        C  0.18116588  0.68945190  0.66997404    -0.11200
C655        C  0.06103920  0.66294793  0.66810491    -0.15400
C656        C  0.02459729  0.64218442  0.65978795    -0.29200
C657        C  0.22041726  0.64919781  0.66078112    -0.03500
C658        C  0.25603424  0.66780776  0.66948259    -0.40000
H659        H  0.13627992  0.58949743  0.65275126     0.12700
H660        H  0.06853698  0.59332240  0.65585954     0.12400
H661        H  0.14476408  0.72111443  0.67678850     0.11800
H662        H  0.21231373  0.71694019  0.67379994     0.12000
H663        H  0.06286053  0.68702339  0.67585061     0.14800
H664        H  0.02336633  0.62039089  0.65134972     0.13600
H665        H  0.22057532  0.62993036  0.65175814     0.11200
H666        H  0.25606552  0.68730855  0.67845820     0.13200
C667        C  0.49860939  0.68332303  0.67045576     0.19300
C668        C  0.53822164  0.71901444  0.67593136    -0.18800
C669        C  0.57918451  0.72125487  0.67373805    -0.11000
C670        C  0.58128284  0.68724551  0.66618299     0.21600
C671        C  0.54167423  0.65178511  0.66061823    -0.20400
C672        C  0.50078723  0.64960851  0.66278342    -0.11200
C673        C  0.62354989  0.68665080  0.66410264    -0.15400
C674        C  0.65945270  0.70817923  0.67258175    -0.29200
C675        C  0.45577057  0.68218770  0.67305565    -0.03500
C676        C  0.42054323  0.66221243  0.66424395    -0.40000
H677        H  0.53752793  0.74548644  0.68184214     0.12700
H678        H  0.60894721  0.74978078  0.67790631     0.12400
H679        H  0.54220877  0.62504389  0.65481153     0.11800
H680        H  0.47097419  0.62093087  0.65869775     0.12000
H681        H  0.62360661  0.66431845  0.65603504     0.14800
H682        H  0.65923136  0.72850900  0.68126075     0.13600
H683        H  0.45403029  0.70050440  0.68211051     0.11200
H684        H  0.42171727  0.64369572  0.65517946     0.13200
C685        C  0.76274826  0.71004824  0.75712730     0.19300
C686        C  0.79165636  0.74339953  0.76661415    -0.18800
C687        C  0.77508878  0.76124974  0.77660539    -0.11000
C688        C  0.72914410  0.74587001  0.77731216     0.21600
C689        C  0.70007649  0.71059655  0.76846009    -0.20400
C690        C  0.71653602  0.69240440  0.75861737    -0.11200
C691        C  0.71110891  0.76923522  0.78585399    -0.15400
C692        C  0.72887160  0.79017937  0.79813372    -0.29200
C693        C  0.78192079  0.69748940  0.74508185    -0.03500
C694        C  0.76107437  0.68479136  0.73250998    -0.40000
H695        H  0.82734857  0.75745008  0.76577715     0.12700
H696        H  0.79847357  0.78881554  0.78315862     0.12400
H697        H  0.66452355  0.69788688  0.76889765     0.11800
H698        H  0.69297632  0.66545909  0.75192086     0.12000
H699        H  0.68198285  0.76956907  0.78178048     0.14800
H700        H  0.75576698  0.78757679  0.80302544     0.13600
H701        H  0.81624137  0.70502129  0.74590172     0.11200
H702        H  0.72832086  0.68109064  0.73125407     0.13200
C703        C  0.68100773  0.59712745  0.58434925     0.19300
C704        C  0.68579919  0.62291054  0.57236524    -0.18800
C705        C  0.66264024  0.60248108  0.55991088    -0.11000
C706        C  0.63527153  0.55573957  0.55920588     0.21600
C707        C  0.63112475  0.53008333  0.57114324    -0.20400
C708        C  0.65336190  0.55050220  0.58362682    -0.11200
C709        C  0.60991373  0.53181341  0.54642227    -0.15400
C710        C  0.59153566  0.54792177  0.53733896    -0.29200
C711        C  0.70795785  0.61883609  0.59710385    -0.03500
C712        C  0.69327916  0.60448838  0.61023343    -0.40000
H713        H  0.70752270  0.65890144  0.57265794     0.12700
H714        H  0.66694643  0.62306126  0.55082270     0.12400
H715        H  0.61024427  0.49396745  0.57083975     0.11800
H716        H  0.64996480  0.52965795  0.59256316     0.12000
H717        H  0.60064410  0.49680183  0.54555877     0.14800
H718        H  0.60016267  0.58273378  0.53788084     0.13600
H719        H  0.74098713  0.64773737  0.59562953     0.11200
H720        H  0.65901779  0.57831688  0.61197391     0.13200
C721        C  0.94366333  0.58292688  0.55639248     0.19300
C722        C  0.90328261  0.57756465  0.56138948    -0.18800
C723        C  0.90214674  0.60010883  0.57348485    -0.11000
C724        C  0.94142526  0.62800091  0.58108184     0.21600
C725        C  0.98202898  0.63395724  0.57598398    -0.20400
C726        C  0.98328746  0.61210887  0.56364007    -0.11200
C727        C  0.93941859  0.64639103  0.59511444    -0.15400
C728        C  0.90947515  0.65921821  0.59796937    -0.29200
C729        C  0.94220477  0.55252618  0.54503674    -0.03500
C730        C  0.97515969  0.56246557  0.53574814    -0.40000
H731        H  0.87222763  0.55463805  0.55616052     0.12700
H732        H  0.87009412  0.59361232  0.57731331     0.12400
H733        H  0.01263436  0.65465850  0.58175713     0.11800
H734        H  0.01481086  0.61600971  0.56026808     0.12000
H735        H  0.96092851  0.64647081  0.60345027     0.14800
H736        H  0.88963189  0.66096120  0.58939656     0.13600
H737        H  0.91270192  0.51939719  0.54456198     0.11200
H738        H  0.00367487  0.59611925  0.53522035     0.13200
C739        C  0.58582047  0.87988768  0.66344431     0.19300
C740        C  0.56204187  0.85553323  0.67530895    -0.18800
C741        C  0.51939987  0.81804789  0.67393556    -0.11000
C742        C  0.49938146  0.80375082  0.66057845     0.21600
C743        C  0.52397243  0.82680907  0.64865762    -0.20400
C744        C  0.56662885  0.86448921  0.65003423    -0.11200
C745        C  0.45389298  0.76403963  0.65867502    -0.15400
C746        C  0.42312630  0.74790767  0.66895740    -0.29200
C747        C  0.62980749  0.92145953  0.66563454    -0.03500
C748        C  0.64843350  0.95504799  0.65622831    -0.40000
H749        H  0.57622220  0.86600087  0.68574951     0.12700
H750        H  0.50268479  0.80017697  0.68338208     0.12400
H751        H  0.50990928  0.81591807  0.63822459     0.11800
H752        H  0.58432112  0.88115535  0.64056167     0.12000
H753        H  0.44532111  0.74731326  0.64849199     0.14800
H754        H  0.43029341  0.76493113  0.67901099     0.13600
H755        H  0.64538586  0.92638475  0.67592551     0.11200
H756        H  0.63225306  0.95199425  0.64617977     0.13200
C757        C  0.17749871  0.52408998  0.67151831     0.19300
C758        C  0.15274658  0.49911471  0.68315557    -0.18800
C759        C  0.10984367  0.46214071  0.68141307    -0.11000
C760        C  0.09057388  0.44917633  0.66788761     0.21600
C761        C  0.11491430  0.47500010  0.65631841    -0.20400
C762        C  0.15763808  0.51200124  0.65806984    -0.11200
C763        C  0.04595971  0.40881260  0.66518682    -0.15400
C764        C  0.02326300  0.37649761  0.67472256    -0.29200
C765        C  0.22301531  0.56330504  0.67386949    -0.03500
C766        C  0.25323231  0.58238435  0.66354608    -0.40000
H767        H  0.16676486  0.50810760  0.69366119     0.12700
H768        H  0.09223230  0.44429297  0.69074177     0.12400
H769        H  0.10090300  0.46635872  0.64580359     0.11800
H770        H  0.17438377  0.53119574  0.64882570     0.12000
H771        H  0.03280501  0.40380406  0.65452413     0.14800
H772        H  0.03635103  0.37930879  0.68527064     0.13600
H773        H  0.23213721  0.57710674  0.68444563     0.11200
H774        H  0.24563755  0.56903226  0.65295755     0.13200
C775        C  0.70258683  0.95247915  0.77224224     0.19300
C776        C  0.67664410  0.94311212  0.76000541    -0.18800
C777        C  0.68874943  0.97511324  0.74940341    -0.11000
C778        C  0.72784081  0.01718177  0.75069604     0.21600
C779        C  0.75236962  0.02735662  0.76329909    -0.20400
C780        C  0.74005837  0.99541805  0.77394941    -0.11200
C781        C  0.74623039  0.05003546  0.73892730    -0.15400
C782        C  0.73301630  0.03981418  0.72540746    -0.29200
C783        C  0.69243532  0.91525072  0.78210078    -0.03500
C784        C  0.70697766  0.92080296  0.79551113    -0.40000
H785        H  0.64746703  0.91038046  0.75846367     0.12700
H786        H  0.66776078  0.96602902  0.74016380     0.12400
H787        H  0.78246363  0.05948512  0.76465517     0.11800
H788        H  0.76139113  0.00381184  0.78310506     0.12000
H789        H  0.77493088  0.08264465  0.74127415     0.14800
H790        H  0.70545400  0.00716642  0.72258906     0.13600
H791        H  0.67296061  0.88136899  0.77797676     0.11200
H792        H  0.72372686  0.95382184  0.80029114     0.13200
C793        C  0.63372722  0.10943463  0.55578929     0.19300
C794        C  0.62559206  0.12474750  0.56852242    -0.18800
C795        C  0.65244992  0.13192798  0.58033101    -0.11000
C796        C  0.68870970  0.12460285  0.57963757     0.21600
C797        C  0.69792413  0.11078027  0.56675448    -0.20400
C798        C  0.67038379  0.10271600  0.55495215    -0.11200
C799        C  0.71767421  0.13205024  0.59213987    -0.15400
C800        C  0.70175255  0.12403808  0.60540130    -0.29200
C801        C  0.60286720  0.10115514  0.54381289    -0.03500
C802        C  0.59116661  0.06866729  0.53401958    -0.40000
H803        H  0.59777486  0.13055527  0.56941004     0.12700
H804        H  0.64510919  0.14381912  0.58993582     0.12400
H805        H  0.72608156  0.10552181  0.56589413     0.11800
H806        H  0.67809129  0.09183031  0.54520639     0.12000
H807        H  0.75232216  0.14186105  0.59034154     0.14800
H808        H  0.66631639  0.11023601  0.60715952     0.13600
H809        H  0.58526288  0.11974454  0.54398983     0.11200
H810        H  0.60832767  0.04972402  0.53363492     0.13200
C811        C  0.96369982  0.37840753  0.55709038     0.19300
C812        C  0.99244053  0.38379683  0.56830808    -0.18800
C813        C  0.97836215  0.35286379  0.57932667    -0.11000
C814        C  0.93471448  0.31592987  0.57948782     0.21600
C815        C  0.90654754  0.30963711  0.56798720    -0.20400
C816        C  0.92069919  0.34051467  0.55693869    -0.11200
C817        C  0.91651738  0.28415086  0.59155370    -0.15400
C818        C  0.93420060  0.29321395  0.60465154    -0.29200
C819        C  0.97793016  0.41555377  0.54679882    -0.03500
C820        C  0.95860701  0.41202470  0.53414264    -0.40000
H821        H  0.02572822  0.41268600  0.56870934     0.12700
H822        H  0.00172559  0.35848588  0.58770770     0.12400
H823        H  0.87278954  0.28150688  0.56778594     0.11800
H824        H  0.89713235  0.33555123  0.54868361     0.12000
H825        H  0.88493924  0.25349421  0.58985643     0.14800
H826        H  0.96440125  0.32455820  0.60688865     0.13600
H827        H  0.00462541  0.44829588  0.55012627     0.11200
H828        H  0.93418068  0.37945806  0.53002758     0.13200
C829        C  0.00124570  0.74634336  0.74925311     0.19300
C830        C  0.98452847  0.75265774  0.76199371    -0.18800
C831        C  0.00926299  0.76223248  0.77449646    -0.11000
C832        C  0.05114106  0.76509267  0.77450915     0.21600
C833        C  0.06693874  0.75705195  0.76186887    -0.20400
C834        C  0.04238279  0.74769512  0.74940868    -0.11200
C835        C  0.08223461  0.78184210  0.78672742    -0.15400
C836        C  0.07346984  0.79218527  0.79960102    -0.29200
C837        C  0.97404593  0.73657521  0.73619543    -0.03500
C838        C  0.99047884  0.74151936  0.72302329    -0.40000
H839        H  0.95260756  0.75115384  0.76221339     0.12700
H840        H  0.99600387  0.76867677  0.78392938     0.12400
H841        H  0.09908679  0.75905154  0.76154099     0.11800
H842        H  0.05581088  0.74135927  0.73999351     0.12000
H843        H  0.11660757  0.79130841  0.78449257     0.14800
H844        H  0.03978985  0.78184456  0.80289193     0.13600
H845        H  0.93870338  0.72440396  0.73754674     0.11200
H846        H  0.02579652  0.75483481  0.72132736     0.13200
C847        C  0.98751623  0.23049669  0.75155218     0.19300
C848        C  0.97859538  0.20735442  0.76438572    -0.18800
C849        C  0.00878767  0.22510547  0.77573748    -0.11000
C850        C  0.04829648  0.26679264  0.77451560     0.21600
C851        C  0.05605419  0.29063299  0.76190327    -0.20400
C852        C  0.02605403  0.27301178  0.75063253    -0.11200
C853        C  0.08500013  0.28389756  0.78516403    -0.15400
C854        C  0.08063157  0.27171858  0.79884622    -0.29200
C855        C  0.95602850  0.21064276  0.73935140    -0.03500
C856        C  0.97010295  0.21970582  0.72588583    -0.40000
H857        H  0.94891368  0.17482664  0.76547479     0.12700
H858        H  0.00201087  0.20531752  0.78518065     0.12400
H859        H  0.08608785  0.32280954  0.76064262     0.11800
H860        H  0.03328819  0.29286793  0.74118464     0.12000
H861        H  0.11837615  0.30634914  0.78124839     0.14800
H862        H  0.04775098  0.25215634  0.80342664     0.13600
H863        H  0.92079822  0.18887455  0.74149739     0.11200
H864        H  0.00556046  0.24011463  0.72384601     0.13200
C865        C  0.32530414  0.42490429  0.65879644     0.19300
C866        C  0.36376943  0.46754762  0.65874291    -0.18800
C867        C  0.36052434  0.50638932  0.65865991    -0.11000
C868        C  0.31864257  0.50339431  0.65823448     0.21600
C869        C  0.28016713  0.46086149  0.65796611    -0.20400
C870        C  0.28337382  0.42197802  0.65844050    -0.11200
C871        C  0.31460541  0.54420089  0.65730459    -0.15400
C872        C  0.33788135  0.57990679  0.66580698    -0.29200
C873        C  0.33014459  0.38433319  0.65871586    -0.03500
C874        C  0.30135380  0.34565363  0.66513556    -0.40000
H875        H  0.39647365  0.47080994  0.65885759     0.12700
H876        H  0.39075044  0.53876907  0.65857247     0.12400
H877        H  0.24755738  0.45776844  0.65747031     0.11800
H878        H  0.25308465  0.38970884  0.65815952     0.12000
H879        H  0.29222611  0.54437365  0.64940528     0.14800
H880        H  0.36083161  0.57857269  0.67332415     0.13600
H881        H  0.36024013  0.38751747  0.65411241     0.11200
H882        H  0.27341250  0.34343651  0.67094194     0.13200
C883        C  0.35450518  0.82366262  0.67539129     0.19300
C884        C  0.39180514  0.86623595  0.67766832    -0.18800
C885        C  0.38794898  0.90466785  0.67686660    -0.11000
C886        C  0.34633946  0.90091721  0.67419019     0.21600
C887        C  0.30891819  0.85824581  0.67225739    -0.20400
C888        C  0.31301393  0.82003405  0.67265930    -0.11200
C889        C  0.34048137  0.94059603  0.67386835    -0.15400
C890        C  0.36994613  0.97954442  0.66781855    -0.29200
C891        C  0.35889689  0.78319617  0.67641833    -0.03500
C892        C  0.33872123  0.74915528  0.66717067    -0.40000
H893        H  0.42400624  0.86972777  0.67993278     0.12700
H894        H  0.41718576  0.93713109  0.67866276     0.12400
H895        H  0.27645115  0.85451612  0.67031490     0.11800
H896        H  0.28355613  0.78757339  0.67114999     0.12000
H897        H  0.30900434  0.93631927  0.67762077     0.14800
H898        H  0.39942189  0.98273050  0.66274684     0.13600
H899        H  0.37871518  0.78157179  0.68497249     0.11200
H900        H  0.31823844  0.75135827  0.65889691     0.13200
C901        C  0.24171178  0.95868526  0.77531847     0.19300
C902        C  0.25228793  0.94512399  0.76267577    -0.18800
C903        C  0.26130065  0.97064898  0.75049763    -0.11000
C904        C  0.25961208  0.01044125  0.75062680     0.21600
C905        C  0.25104134  0.02519719  0.76340885    -0.20400
C906        C  0.24181332  0.99945858  0.77564510    -0.11200
C907        C  0.26855429  0.03800407  0.73774822    -0.15400
C908        C  0.26218484  0.02084673  0.72462347    -0.29200
C909        C  0.22485939  0.92611609  0.78706973    -0.03500
C910        C  0.21465853  0.93376765  0.80008130    -0.40000
H911        H  0.25248215  0.91389724  0.76210968     0.12700
H912        H  0.26971620  0.95905168  0.74104752     0.12400
H913        H  0.25027685  0.05613509  0.76383395     0.11800
H914        H  0.23321012  0.01084217  0.78509719     0.12000
H915        H  0.28161415  0.07368956  0.73914617     0.14800
H916        H  0.24780195  0.98508890  0.72305870     0.13600
H917        H  0.21543385  0.89183576  0.78436324     0.11200
H918        H  0.22528023  0.96735525  0.80379908     0.13200
C919        C  0.29748404  0.24965907  0.75539293     0.19300
C920        C  0.27575033  0.22022021  0.76660817    -0.18800
C921        C  0.25802532  0.23276229  0.77780274    -0.11000
C922        C  0.26204094  0.27534168  0.77805075     0.21600
C923        C  0.28609405  0.30564225  0.76728147    -0.20400
C924        C  0.30397645  0.29321572  0.75615244    -0.11200
C925        C  0.23720187  0.28752887  0.78819202    -0.15400
C926        C  0.22049534  0.26707023  0.80059448    -0.29200
C927        C  0.31027374  0.23278784  0.74278865    -0.03500
C928        C  0.31520164  0.25058891  0.72982993    -0.40000
H929        H  0.27054060  0.18657879  0.76637573     0.12700
H930        H  0.23921843  0.20819074  0.78577590     0.12400
H931        H  0.28995117  0.33875439  0.76725306     0.11800
H932        H  0.32200244  0.31763219  0.74806797     0.12000
H933        H  0.23059085  0.31382413  0.78497216     0.14800
H934        H  0.22866360  0.24278132  0.80467065     0.13600
H935        H  0.31088425  0.20180663  0.74391427     0.11200
H936        H  0.31205436  0.27995209  0.72829050     0.13200
C937        C  0.39990786  0.03566638  0.55412621     0.19300
C938        C  0.38097256  0.00831600  0.56594220    -0.18800
C939        C  0.36391497  0.02178688  0.57705319    -0.11000
C940        C  0.36628230  0.06369604  0.57677247     0.21600
C941        C  0.38301776  0.08994774  0.56458257    -0.20400
C942        C  0.39973008  0.07621404  0.55338528    -0.11200
C943        C  0.35432759  0.08244718  0.58916063    -0.15400
C944        C  0.35094409  0.06716264  0.60242891    -0.29200
C945        C  0.42542382  0.02409736  0.54405371    -0.03500
C946        C  0.43701049  0.04039551  0.53088307    -0.40000
H947        H  0.38064600  0.97690811  0.56678837     0.12700
H948        H  0.34987099  0.99946952  0.58590518     0.12400
H949        H  0.38508032  0.12221641  0.56398077     0.11800
H950        H  0.41478976  0.09862927  0.54458261     0.12000
H951        H  0.35249697  0.11257231  0.58751444     0.14800
H952        H  0.35493197  0.03857371  0.60448610     0.13600
H953        H  0.43830990  0.00340797  0.54811354     0.11200
H954        H  0.42257368  0.05861197  0.52604118     0.13200
C955        C  0.39991241  0.31186581  0.58125761     0.19300
C956        C  0.41280133  0.30216990  0.56833008    -0.18800
C957        C  0.42320277  0.33129019  0.55687967    -0.11000
C958        C  0.42001051  0.37020264  0.55816659     0.21600
C959        C  0.40428171  0.37805597  0.57081829    -0.20400
C960        C  0.39415068  0.34922633  0.58220263    -0.11200
C961        C  0.43865077  0.40675205  0.54763933    -0.15400
C962        C  0.45138609  0.40381142  0.53449057    -0.29200
C963        C  0.39213993  0.28268340  0.59363457    -0.03500
C964        C  0.40012638  0.29904468  0.60687603    -0.40000
H965        H  0.41665823  0.27307548  0.56728164     0.12700
H966        H  0.43567793  0.32427963  0.54737080     0.12400
H967        H  0.40125957  0.40759303  0.57208273     0.11800
H968        H  0.38227316  0.35660759  0.59179077     0.12000
H969        H  0.44627354  0.43963824  0.55140492     0.14800
H970        H  0.44246140  0.37173418  0.52978881     0.13600
H971        H  0.37922127  0.24719792  0.59181883     0.11200
H972        H  0.41455368  0.33475413  0.60862789     0.13200
C973        C  0.97431054  0.14005775  0.99498249     0.19300
C974        C  0.94858547  0.15082717  0.00380995    -0.18800
C975        C  0.94702050  0.19011860  0.00183483    -0.11000
C976        C  0.97145696  0.21996196  0.99096203     0.21600
C977        C  0.99619500  0.20869480  0.98187622    -0.20400
C978        C  0.99787310  0.16940336  0.98386595    -0.11200
C979        C  0.97256681  0.26330820  0.98892782    -0.15400
C980        C  0.96644020  0.28556223  0.99954596    -0.29200
C981        C  0.97538616  0.09816349  0.99793279    -0.03500
C982        C  0.99694391  0.08237439  0.99013767    -0.40000
H983        H  0.92957723  0.12871800  0.01233654     0.12700
H984        H  0.92636952  0.19672435  0.00880031     0.12400
H985        H  0.01511833  0.23090158  0.97336013     0.11800
H986        H  0.01804132  0.16280905  0.97671601     0.12000
H987        H  0.98279139  0.27934300  0.97871014     0.14800
H988        H  0.95976459  0.27163672  0.01007613     0.13600
H989        H  0.95766663  0.07925624  0.00719302     0.11200
H990        H  0.01715545  0.10093190  0.98123908     0.13200
C991        C  0.01875975  0.77990756  0.00843448     0.19300
C992        C  0.98998690  0.79062912  0.01561214    -0.18800
C993        C  0.98876902  0.82954160  0.01235635    -0.11000
C994        C  0.01689551  0.85902237  0.00192351     0.21600
C995        C  0.04636302  0.84876855  0.99498577    -0.20400
C996        C  0.04756645  0.80992773  0.99823561    -0.11200
C997        C  0.01572430  0.89979898  0.99753641    -0.15400
C998        C  0.99815151  0.91997209  0.00520313    -0.29200
C999        C  0.01680793  0.73661692  0.01151445    -0.03500
C1000       C  0.02640329  0.71433213  0.00178402    -0.40000
H1001       H  0.96739780  0.76811874  0.02349569     0.12700
H1002       H  0.96490319  0.83552970  0.01777496     0.12400
H1003       H  0.06854936  0.87089901  0.98695685     0.11800
H1004       H  0.07115130  0.80364688  0.99273921     0.12000
H1005       H  0.03026782  0.91415445  0.98741302     0.14800
H1006       H  0.98235297  0.90642246  0.01523009     0.13600
H1007       H  0.00265464  0.72043235  0.02149306     0.11200
H1008       H  0.03673359  0.72836989  0.99133765     0.13200
C1009       C  0.07177403  0.71709293  0.89638642     0.19300
C1010       C  0.05265951  0.72132252  0.90887141    -0.18800
C1011       C  0.03473876  0.68679482  0.91875988    -0.11000
C1012       C  0.03565808  0.64698614  0.91642410     0.21600
C1013       C  0.05377157  0.64230423  0.90375645    -0.20400
C1014       C  0.07147968  0.67681787  0.89380744    -0.11200
C1015       C  0.02350023  0.61261909  0.92764456    -0.15400
C1016       C  0.99778600  0.60871808  0.93877093    -0.29200
C1017       C  0.09627736  0.75715717  0.88726652    -0.03500
C1018       C  0.10664384  0.75578990  0.87367818    -0.40000
H1019       H  0.05300003  0.75217558  0.91122566     0.12700
H1020       H  0.02255717  0.69272142  0.92852159     0.12400
H1021       H  0.05561905  0.61241663  0.90176299     0.11800
H1022       H  0.08694873  0.67263539  0.88450243     0.12000
H1023       H  0.03923073  0.59226356  0.92727180     0.14800
H1024       H  0.98104167  0.62803736  0.93917879     0.13600
H1025       H  0.10735185  0.78964044  0.89210295     0.11200
H1026       H  0.09341770  0.72388502  0.86829329     0.13200
C1027       C  0.09047740  0.36468256  0.89557455     0.19300
C1028       C  0.07003826  0.34457279  0.90833308    -0.18800
C1029       C  0.05998387  0.36777594  0.91836125    -0.11000
C1030       C  0.07092953  0.41240889  0.91606008     0.21600
C1031       C  0.08967523  0.43203480  0.90303238    -0.20400
C1032       C  0.09962554  0.40858342  0.89290411    -0.11200
C1033       C  0.06209546  0.43841304  0.92695495    -0.15400
C1034       C  0.05942210  0.42865543  0.94078498    -0.29200
C1035       C  0.10599414  0.34034772  0.88630395    -0.03500
C1036       C  0.11860224  0.35012104  0.87272590    -0.40000
H1037       H  0.06237956  0.31078318  0.91067578     0.12700
H1038       H  0.04348814  0.35031939  0.92788925     0.12400
H1039       H  0.09782920  0.46605305  0.90085100     0.11800
H1040       H  0.11596480  0.42555118  0.88329329     0.12000
H1041       H  0.05693366  0.46542948  0.92351529     0.14800
H1042       H  0.06561560  0.40241333  0.94427611     0.13600
H1043       H  0.10891891  0.31355317  0.89121131     0.11200
H1044       H  0.11312783  0.37425006  0.86712566     0.13200
C1045       C  0.15625898  0.14649904  0.99430553     0.19300
C1046       C  0.19809312  0.15399025  0.99860235    -0.18800
C1047       C  0.23475679  0.19746835  0.99909665    -0.11000
C1048       C  0.23042763  0.23414205  0.99491048     0.21600
C1049       C  0.18861722  0.22649492  0.99042315    -0.20400
C1050       C  0.15162215  0.18310401  0.99033398    -0.11200
C1051       C  0.26995845  0.27980167  0.99401428    -0.15400
C1052       C  0.30316041  0.29539373  0.00355654    -0.29200
C1053       C  0.11833219  0.10011475  0.99328657    -0.03500
C1054       C  0.07847696  0.08836576  0.99889467    -0.40000
H1055       H  0.20235524  0.12611117  0.00156154     0.12700
H1056       H  0.26682913  0.20217793  0.00224573     0.12400
H1057       H  0.18466050  0.25412362  0.98694487     0.11800
H1058       H  0.11972474  0.17792713  0.98674382     0.12000
H1059       H  0.27214559  0.30054111  0.98512803     0.14800
H1060       H  0.29955439  0.27562124  0.01285850     0.13600
H1061       H  0.12361459  0.07567490  0.98780286     0.11200
H1062       H  0.07436151  0.11410491  0.00409831     0.13200
C1063       C  0.86549779  0.83644507  0.98854591     0.19300
C1064       C  0.86324520  0.79502453  0.99019320    -0.18800
C1065       C  0.82216730  0.75507634  0.98945949    -0.11000
C1066       C  0.78271378  0.75591894  0.98672203     0.21600
C1067       C  0.78536909  0.79732775  0.98453108    -0.20400
C1068       C  0.82622983  0.83724826  0.98558996    -0.11200
C1069       C  0.73827357  0.71444363  0.98625319    -0.15400
C1070       C  0.72742288  0.67965933  0.99486881    -0.29200
C1071       C  0.90922884  0.87839425  0.98943076    -0.03500
C1072       C  0.91444536  0.91514867  0.99611727    -0.40000
H1073       H  0.89325622  0.79366889  0.99228044     0.12700
H1074       H  0.82138283  0.72364207  0.99088537     0.12400
H1075       H  0.75554003  0.79883510  0.98227524     0.11800
H1076       H  0.82721511  0.86869645  0.98390536     0.12000
H1077       H  0.71239108  0.71456313  0.97981955     0.14800
H1078       H  0.75202753  0.68118265  0.00228485     0.13600
H1079       H  0.93755772  0.87868564  0.98453132     0.11200
H1080       H  0.88541255  0.91397684  0.00082977     0.13200
C1081       C  0.59784281  0.66148273  0.91739879     0.19300
C1082       C  0.63928926  0.69466674  0.91231887    -0.18800
C1083       C  0.64288235  0.71290674  0.89894017    -0.11000
C1084       C  0.60481921  0.69851958  0.89042921     0.21600
C1085       C  0.56340413  0.66528953  0.89549391    -0.20400
C1086       C  0.55984879  0.64685028  0.90881565    -0.11200
C1087       C  0.60595425  0.72265366  0.87745561    -0.15400
C1088       C  0.64301370  0.74773952  0.86989088    -0.29200
C1089       C  0.59508747  0.64376025  0.93181002    -0.03500
C1090       C  0.56343480  0.60233568  0.93547043    -0.40000
H1091       H  0.66891581  0.70687676  0.91879237     0.12700
H1092       H  0.67508469  0.73971396  0.89561637     0.12400
H1093       H  0.53345312  0.65455928  0.88929075     0.11800
H1094       H  0.52706099  0.62242810  0.91251932     0.12000
H1095       H  0.57603232  0.72391420  0.87490652     0.14800
H1096       H  0.67260446  0.74513818  0.87146459     0.13600
H1097       H  0.62105903  0.66435134  0.93934507     0.11200
H1098       H  0.53931276  0.58034673  0.92770523     0.13200
C1099       C  0.29506915  0.34475227  0.89574950     0.19300
C1100       C  0.33517884  0.38403458  0.89882225    -0.18800
C1101       C  0.36058968  0.38659961  0.91059041    -0.11000
C1102       C  0.34603237  0.35007145  0.91980545     0.21600
C1103       C  0.30636638  0.31023337  0.91655472    -0.20400
C1104       C  0.28135035  0.30733639  0.90451916    -0.11200
C1105       C  0.36849454  0.35565222  0.93369986    -0.15400
C1106       C  0.41257914  0.38365343  0.93543456    -0.29200
C1107       C  0.26547327  0.34647827  0.88474034    -0.03500
C1108       C  0.23794057  0.31187122  0.87640823    -0.40000
H1109       H  0.34607881  0.41349677  0.89236633     0.12700
H1110       H  0.39015714  0.41831249  0.91293329     0.12400
H1111       H  0.29401643  0.28186460  0.92357769     0.11800
H1112       H  0.24999604  0.27689284  0.90258980     0.12000
H1113       H  0.34764681  0.34010923  0.94283319     0.14800
H1114       H  0.43324623  0.39768040  0.92616680     0.13600
H1115       H  0.26620840  0.37810011  0.88349206     0.11200
H1116       H  0.23892630  0.28097600  0.87662086     0.13200
C1117       C  0.84693241  0.99947463  0.99798729     0.19300
C1118       C  0.83142624  0.01480479  0.00908114    -0.18800
C1119       C  0.79349299  0.01870895  0.00743194    -0.11000
C1120       C  0.76949701  0.00645064  0.99465198     0.21600
C1121       C  0.78551536  0.99181026  0.98346827    -0.20400
C1122       C  0.82371117  0.98819935  0.98509970    -0.11200
C1123       C  0.72733511  0.00746744  0.99263438    -0.15400
C1124       C  0.70206979  0.00758721  0.00337201    -0.29200
C1125       C  0.88681080  0.99498932  0.00043631    -0.03500
C1126       C  0.91453899  0.99720236  0.99019664    -0.40000
H1127       H  0.84896350  0.02412229  0.01907180     0.12700
H1128       H  0.78350245  0.03157570  0.01620744     0.12400
H1129       H  0.76784952  0.98219796  0.97350502     0.11800
H1130       H  0.83421915  0.97554755  0.97637845     0.12000
H1131       H  0.71495527  0.00460793  0.98194121     0.14800
H1132       H  0.71235639  0.00779287  0.01416241     0.13600
H1133       H  0.89570855  0.99294046  0.01128282     0.11200
H1134       H  0.90907186  0.00294869  0.97934477     0.13200
C1135       C  0.22035844  0.98440223  0.00653053     0.19300
C1136       C  0.20727675  0.00786614  0.01561302    -0.18800
C1137       C  0.16950518  0.01130151  0.01262389    -0.11000
C1138       C  0.14370810  0.99081579  0.00050762     0.21600
C1139       C  0.15623751  0.96650675  0.99163898    -0.20400
C1140       C  0.19376235  0.96294913  0.99464311    -0.11200
C1141       C  0.10407280  0.99424380  0.99645403    -0.15400
C1142       C  0.08066055  0.00520399  0.00524902    -0.29200
C1143       C  0.26233503  0.98387802  0.00953668    -0.03500
C1144       C  0.28685062  0.97962130  0.99931177    -0.40000
H1145       H  0.22702964  0.02460274  0.02486378     0.12700
H1146       H  0.16143219  0.03086952  0.01963728     0.12400
H1147       H  0.13679815  0.95004917  0.98230837     0.11800
H1148       H  0.20163966  0.94323225  0.98762312     0.12000
H1149       H  0.09229021  0.98559186  0.98566024     0.14800
H1150       H  0.09052478  0.01395467  0.01615145     0.13600
H1151       H  0.27536631  0.99106529  0.02022432     0.11200
H1152       H  0.27588147  0.97592852  0.98843906     0.13200
C1153       C  0.36425012  0.97047476  0.91535386     0.19300
C1154       C  0.36576363  0.94653240  0.90358706    -0.18800
C1155       C  0.33114456  0.92879174  0.89364107    -0.11000
C1156       C  0.29400521  0.93444771  0.89532045     0.21600
C1157       C  0.29325985  0.95974929  0.90676226    -0.20400
C1158       C  0.32789427  0.97769755  0.91663776    -0.11200
C1159       C  0.25328011  0.91019090  0.88645648    -0.15400
C1160       C  0.25288655  0.89597213  0.87322821    -0.29200
C1161       C  0.39733057  0.98148277  0.92694521    -0.03500
C1162       C  0.40223074  0.00844118  0.93790750    -0.40000
H1163       H  0.39292896  0.93987126  0.90240003     0.12700
H1164       H  0.33245121  0.90859947  0.88513835     0.12400
H1165       H  0.26485952  0.96423986  0.90836943     0.11800
H1166       H  0.32433781  0.99480981  0.92563284     0.12000
H1167       H  0.22183905  0.90312167  0.89112833     0.14800
H1168       H  0.28398101  0.90529257  0.86791494     0.13600
H1169       H  0.41493381  0.96288466  0.92717970     0.11200
H1170       H  0.38564818  0.02792151  0.93788418     0.13200
C1171       C  0.57805440  0.92700848  0.91496744     0.19300
C1172       C  0.55548335  0.91105663  0.90206590    -0.18800
C1173       C  0.57544468  0.90135359  0.89079640    -0.11000
C1174       C  0.61873379  0.90798650  0.89219857     0.21600
C1175       C  0.64196964  0.92598468  0.90484391    -0.20400
C1176       C  0.62218798  0.93577101  0.91603057    -0.11200
C1177       C  0.63868445  0.89113660  0.88173205    -0.15400
C1178       C  0.62529739  0.87978541  0.86824532    -0.29200
C1179       C  0.55520473  0.93485438  0.92702677    -0.03500
C1180       C  0.56741862  0.93549267  0.94055942    -0.40000
H1181       H  0.52173935  0.90466413  0.90086082     0.12700
H1182       H  0.55617605  0.88686739  0.88130539     0.12400
H1183       H  0.67539331  0.93157114  0.90620974     0.11800
H1184       H  0.64173326  0.95005640  0.92547884     0.12000
H1185       H  0.66432998  0.88467374  0.88570878     0.14800
H1186       H  0.60206145  0.88815750  0.86344289     0.13600
H1187       H  0.52770442  0.94040426  0.92469136     0.11200
H1188       H  0.59414566  0.92903648  0.94307960     0.13200
C1189       C  0.89236885  0.63386383  0.10561993     0.19300
C1190       C  0.86868548  0.59126179  0.09939429    -0.18800
C1191       C  0.88485535  0.58039468  0.08747083    -0.11000
C1192       C  0.92567485  0.61188133  0.08139463     0.21600
C1193       C  0.94997072  0.65437637  0.08778126    -0.20400
C1194       C  0.93362974  0.66531527  0.09979121    -0.11200
C1195       C  0.94254303  0.60193848  0.06813516    -0.15400
C1196       C  0.92936642  0.55990497  0.06373432    -0.29200
C1197       C  0.86923647  0.64523941  0.11669180    -0.03500
C1198       C  0.88754372  0.68168456  0.12517744    -0.40000
H1199       H  0.83646078  0.56657232  0.10347947     0.12700
H1200       H  0.86410703  0.54779188  0.08278150     0.12400
H1201       H  0.98133975  0.67947683  0.08331207     0.11800
H1202       H  0.95239404  0.69883524  0.10407192     0.12000
H1203       H  0.96758110  0.62994023  0.06209796     0.14800
H1204       H  0.90709676  0.53176237  0.07023932     0.13600
H1205       H  0.83330414  0.62319932  0.11725482     0.11200
H1206       H  0.92336299  0.70362775  0.12580279     0.13200
C1207       C  0.62503132  0.61592610  0.08614433     0.19300
C1208       C  0.65866867  0.66122338  0.08661064    -0.18800
C1209       C  0.68649125  0.67856179  0.09840951    -0.11000
C1210       C  0.68139982  0.65082601  0.10993266     0.21600
C1211       C  0.64571645  0.60659541  0.10984167    -0.20400
C1212       C  0.61780059  0.58935696  0.09808837    -0.11200
C1213       C  0.71407992  0.66536868  0.12172485    -0.15400
C1214       C  0.75666968  0.69845999  0.12050872    -0.29200
C1215       C  0.59821207  0.59452685  0.07326684    -0.03500
C1216       C  0.61346284  0.60861220  0.06015186    -0.40000
H1217       H  0.66394215  0.68324229  0.07784474     0.12700
H1218       H  0.71225433  0.71342382  0.09832536     0.12400
H1219       H  0.64061017  0.58464270  0.11863579     0.11800
H1220       H  0.59171070  0.55452814  0.09809017     0.12000
H1221       H  0.70472373  0.64426527  0.13101531     0.14800
H1222       H  0.76813740  0.71694568  0.11074464     0.13600
H1223       H  0.56717890  0.56309237  0.07457955     0.11200
H1224       H  0.64575106  0.63831580  0.05860139     0.13200
C1225       C  0.67180386  0.18287757  0.34015942     0.19300
C1226       C  0.68636593  0.16487086  0.32960509    -0.18800
C1227       C  0.68352397  0.12345397  0.33142067    -0.11000
C1228       C  0.66580388  0.09887626  0.34388882     0.21600
C1229       C  0.65278836  0.11762726  0.35466789    -0.20400
C1230       C  0.65567736  0.15915912  0.35285475    -0.11200
C1231       C  0.66282102  0.05492363  0.34622674    -0.15400
C1232       C  0.66081279  0.02839171  0.33555185    -0.29200
C1233       C  0.67494120  0.22675391  0.33758583    -0.03500
C1234       C  0.65147214  0.24137137  0.34481485    -0.40000
H1235       H  0.69989324  0.18286934  0.31986994     0.12700
H1236       H  0.69610223  0.11141933  0.32311205     0.12400
H1237       H  0.64019659  0.10000205  0.36451020     0.11800
H1238       H  0.64582425  0.17262267  0.36150784     0.12000
H1239       H  0.66343281  0.04470640  0.35699687     0.14800
H1240       H  0.65929925  0.03774522  0.32476214     0.13600
H1241       H  0.69568781  0.24691817  0.32893354     0.11200
H1242       H  0.62718223  0.21993671  0.35253854     0.13200
C1243       C  0.67890776  0.56962409  0.33709615     0.19300
C1244       C  0.64149568  0.52938197  0.34125628    -0.18800
C1245       C  0.64010120  0.48857649  0.33941133    -0.11000
C1246       C  0.67659169  0.48716235  0.33356321     0.21600
C1247       C  0.71401465  0.52734804  0.32935047    -0.20400
C1248       C  0.71538383  0.56824827  0.33117515    -0.11200
C1249       C  0.67652211  0.44438315  0.33177248    -0.15400
C1250       C  0.65441924  0.40968816  0.34057472    -0.29200
C1251       C  0.67818297  0.61202782  0.33895383    -0.03500
C1252       C  0.70104078  0.64785972  0.33063563    -0.40000
H1253       H  0.61284374  0.52942636  0.34573360     0.12700
H1254       H  0.61008637  0.45820927  0.34238124     0.12400
H1255       H  0.74258717  0.52715307  0.32486662     0.11800
H1256       H  0.74524609  0.59862185  0.32812435     0.12000
H1257       H  0.69693193  0.44218711  0.32350741     0.14800
H1258       H  0.63483379  0.41210111  0.34904508     0.13600
H1259       H  0.65485554  0.61224758  0.34652417     0.11200
H1260       H  0.72178958  0.64687102  0.32227613     0.13200
C1261       C  0.65045210  0.95816570  0.41835921     0.19300
C1262       C  0.65002518  0.99762229  0.42162261    -0.18800
C1263       C  0.62780737  0.00015221  0.43361433    -0.11000
C1264       C  0.60469997  0.96279287  0.44243515     0.21600
C1265       C  0.60636136  0.92389678  0.43943013    -0.20400
C1266       C  0.62923276  0.92164443  0.42762363    -0.11200
C1267       C  0.57281453  0.96075167  0.45326532    -0.15400
C1268       C  0.57734405  0.99641754  0.46049990    -0.29200
C1269       C  0.66711119  0.95341988  0.40434758    -0.03500
C1270       C  0.68183442  0.92460756  0.40195267    -0.40000
H1271       H  0.66546586  0.02598211  0.41457466     0.12700
H1272       H  0.62625255  0.03026636  0.43541414     0.12400
H1273       H  0.58824380  0.89442209  0.44591586     0.11800
H1274       H  0.62757676  0.89018567  0.42529868     0.12000
H1275       H  0.54277968  0.92855325  0.45481651     0.14800
H1276       H  0.60820292  0.02828942  0.45993772     0.13600
H1277       H  0.66351068  0.97140075  0.39554835     0.11200
H1278       H  0.68696156  0.90787201  0.41080944     0.13200
C1279       C  0.56345903  0.64888954  0.44466997     0.19300
C1280       C  0.53778877  0.64714906  0.43298470    -0.18800
C1281       C  0.55810059  0.66951799  0.42057320    -0.11000
C1282       C  0.60466794  0.69501190  0.41967516     0.21600
C1283       C  0.63050938  0.69848140  0.43153767    -0.20400
C1284       C  0.61013180  0.67503308  0.44390715    -0.11200
C1285       C  0.62635079  0.71987112  0.40664828    -0.15400
C1286       C  0.61189066  0.70235995  0.39370735    -0.29200
C1287       C  0.53959487  0.62125956  0.45705773    -0.03500
C1288       C  0.55504848  0.60009117  0.46522117    -0.40000
H1289       H  0.50174120  0.62740569  0.43333453     0.12700
H1290       H  0.53735415  0.66733670  0.41173192     0.12400
H1291       H  0.66650009  0.71869478  0.43112893     0.11800
H1292       H  0.63075850  0.67762032  0.45282241     0.12000
H1293       H  0.65539156  0.75310894  0.40774060     0.14800
H1294       H  0.58540792  0.66777042  0.39255581     0.13600
H1295       H  0.50471962  0.61177195  0.45803060     0.11200
H1296       H  0.58962377  0.60854334  0.46458829     0.13200
C1297       C  0.71235439  0.72166916  0.21879332     0.19300
C1298       C  0.68574271  0.68994324  0.22891009    -0.18800
C1299       C  0.67060984  0.70254012  0.24072240    -0.11000
C1300       C  0.68236924  0.74746663  0.24276239     0.21600
C1301       C  0.70620880  0.77857675  0.23214260    -0.20400
C1302       C  0.72131645  0.76595755  0.22029876    -0.11200
C1303       C  0.67342894  0.76377133  0.25618915    -0.15400
C1304       C  0.67085700  0.74431369  0.26871811    -0.29200
C1305       C  0.73580861  0.70900514  0.20829620    -0.03500
C1306       C  0.75570635  0.73242142  0.19658954    -0.40000
H1307       H  0.67820107  0.65559013  0.22797631     0.12700
H1308       H  0.65088482  0.67726112  0.24841308     0.12400
H1309       H  0.71545830  0.81335468  0.23340745     0.11800
H1310       H  0.74232246  0.79160276  0.21288066     0.12000
H1311       H  0.67477216  0.79587126  0.25599509     0.14800
H1312       H  0.67262375  0.71389179  0.26922156     0.13600
H1313       H  0.74021176  0.68088335  0.21096606     0.11200
H1314       H  0.74989628  0.75883904  0.19301054     0.13200
C1315       C  0.41501796  0.09844905  0.33845815     0.19300
C1316       C  0.45694034  0.10219142  0.34016225    -0.18800
C1317       C  0.49526606  0.14412048  0.34192770    -0.11000
C1318       C  0.49225332  0.18315278  0.34240283     0.21600
C1319       C  0.45023512  0.17943179  0.34101714    -0.20400
C1320       C  0.41197349  0.13751456  0.33886273    -0.11200
C1321       C  0.53241307  0.22777671  0.34472944    -0.15400
C1322       C  0.57098395  0.24023632  0.33798087    -0.29200
C1323       C  0.37494457  0.05317653  0.33713645    -0.03500
C1324       C  0.33981105  0.04394271  0.32882516    -0.40000
H1325       H  0.46003858  0.07253617  0.34007178     0.12700
H1326       H  0.52712641  0.14592266  0.34326134     0.12400
H1327       H  0.44711334  0.20904716  0.34148932     0.11800
H1328       H  0.37995400  0.13555380  0.33790079     0.12000
H1329       H  0.52953258  0.25102567  0.35173238     0.14800
H1330       H  0.57286915  0.21609686  0.33109266     0.13600
H1331       H  0.37555716  0.02593206  0.34262526     0.11200
H1332       H  0.34041424  0.07013459  0.32236878     0.13200
C1333       C  0.80097135  0.48185554  0.34736655     0.19300
C1334       C  0.80810322  0.52489101  0.35008774    -0.18800
C1335       C  0.85093317  0.56241492  0.34905537    -0.11000
C1336       C  0.88762554  0.55739006  0.34572583     0.21600
C1337       C  0.88079128  0.51428702  0.34343780    -0.20400
C1338       C  0.83778328  0.47687215  0.34404819    -0.11200
C1339       C  0.93329182  0.59687155  0.34519053    -0.15400
C1340       C  0.94312897  0.63175176  0.33672957    -0.29200
C1341       C  0.75521368  0.44245659  0.34837732    -0.03500
C1342       C  0.74011410  0.40844704  0.33909306    -0.40000
H1343       H  0.78037763  0.52949892  0.35280817     0.12700
H1344       H  0.85560192  0.59534608  0.35110421     0.12400
H1345       H  0.90869598  0.50965567  0.34102533     0.11800
H1346       H  0.83345334  0.44397302  0.34221340     0.12000
H1347       H  0.95913627  0.59683454  0.35164630     0.14800
H1348       H  0.91754857  0.62976643  0.32964615     0.13600
H1349       H  0.73333513  0.44196357  0.35661949     0.11200
H1350       H  0.76194415  0.41030091  0.33064804     0.13200
C1351       C  0.02981029  0.63171581  0.43916484     0.19300
C1352       C  0.07121558  0.66682542  0.43478161    -0.18800
C1353       C  0.07424037  0.69363710  0.42336685    -0.11000
C1354       C  0.03582832  0.68534521  0.41583959     0.21600
C1355       C  0.99417611  0.65089276  0.42044300    -0.20400
C1356       C  0.99106960  0.62463815  0.43212304    -0.11200
C1357       C  0.03962172  0.70806165  0.40216324    -0.15400
C1358       C  0.07261112  0.75012155  0.39962750    -0.29200
C1359       C  0.02889335  0.59920473  0.44954861    -0.03500
C1360       C  0.99596451  0.57687569  0.45889150    -0.40000
H1361       H  0.10155636  0.67247797  0.43989403     0.12700
H1362       H  0.10703230  0.71894311  0.41991112     0.12400
H1363       H  0.96417414  0.64336221  0.41471163     0.11800
H1364       H  0.95874492  0.59711319  0.43505999     0.12000
H1365       H  0.01715356  0.68836455  0.39368926     0.14800
H1366       H  0.09364982  0.77020842  0.40831148     0.13600
H1367       H  0.05640898  0.59263400  0.44929702     0.11200
H1368       H  0.96978515  0.58507969  0.46011680     0.13200
C1369       C  0.38654438  0.95485135  0.43397001     0.19300
C1370       C  0.39427065  0.97628443  0.42089658    -0.18800
C1371       C  0.36245953  0.95855823  0.41016063    -0.11000
C1372       C  0.32200461  0.91839170  0.41214002     0.21600
C1373       C  0.31335045  0.89767702  0.42537893    -0.20400
C1374       C  0.34540900  0.91545401  0.43618334    -0.11200
C1375       C  0.28816396  0.89854781  0.40064956    -0.15400
C1376       C  0.29967958  0.90432923  0.38694769    -0.29200
C1377       C  0.42384334  0.97331385  0.44436914    -0.03500
C1378       C  0.42083607  0.96154595  0.45803403    -0.40000
H1379       H  0.42543009  0.00681202  0.41889803     0.12700
H1380       H  0.36967167  0.97666877  0.40034574     0.12400
H1381       H  0.28217947  0.86704771  0.42724340     0.11800
H1382       H  0.33823723  0.89755889  0.44602600     0.12000
H1383       H  0.25320950  0.87927868  0.40352673     0.14800
H1384       H  0.33466563  0.92203904  0.38408785     0.13600
H1385       H  0.45640625  0.99808658  0.44041445     0.11200
H1386       H  0.38869803  0.93922939  0.46269063     0.13200
C1387       C  0.93593854  0.76421125  0.22465372     0.19300
C1388       C  0.92858743  0.78083051  0.23726179    -0.18800
C1389       C  0.95253606  0.78403900  0.24946424    -0.11000
C1390       C  0.98505490  0.77127286  0.24930128     0.21600
C1391       C  0.99308843  0.75536416  0.23662657    -0.20400
C1392       C  0.96838901  0.75131285  0.22442369    -0.11200
C1393       C  0.01280183  0.77690256  0.26194597    -0.15400
C1394       C  0.99802317  0.77358157  0.27527800    -0.29200
C1395       C  0.90934752  0.76213659  0.21211099    -0.03500
C1396       C  0.89660273  0.73185559  0.20152056    -0.40000
H1397       H  0.90395913  0.79130673  0.23769254     0.12700
H1398       H  0.94635350  0.79766647  0.25889550     0.12400
H1399       H  0.01849762  0.74595773  0.23618676     0.11800
H1400       H  0.97540645  0.73915040  0.21481840     0.12000
H1401       H  0.04630958  0.78291531  0.26019020     0.14800
H1402       H  0.96352580  0.76394066  0.27721731     0.13600
H1403       H  0.89576371  0.78444448  0.21233793     0.11200
H1404       H  0.90976922  0.70933126  0.20084627     0.13200
C1405       C  0.91949402  0.27899716  0.10510881     0.19300
C1406       C  0.94271473  0.27772219  0.09320353    -0.18800
C1407       C  0.95925923  0.31223556  0.08330703    -0.11000
C1408       C  0.95293716  0.34917589  0.08505817     0.21600
C1409       C  0.93070667  0.35100310  0.09716729    -0.20400
C1410       C  0.91423122  0.31645125  0.10710409    -0.11200
C1411       C  0.96403831  0.38323778  0.07377929    -0.15400
C1412       C  0.99155067  0.38933122  0.06295784    -0.29200
C1413       C  0.89732827  0.23854368  0.11420569    -0.03500
C1414       C  0.88129300  0.23742215  0.12721767    -0.40000
H1415       H  0.94678821  0.24907224  0.09128681     0.12700
H1416       H  0.97486116  0.30836551  0.07399746     0.12400
H1417       H  0.92473536  0.37860252  0.09871645     0.11800
H1418       H  0.89562413  0.31836796  0.11592676     0.12000
H1419       H  0.94612243  0.40152126  0.07383317     0.14800
H1420       H  0.01033434  0.37203085  0.06277364     0.13600
H1421       H  0.89307627  0.20757210  0.10979268     0.11200
H1422       H  0.88760928  0.26814384  0.13232917     0.13200
C1423       C  0.64325119  0.00652431  0.08256925     0.19300
C1424       C  0.67886424  0.00101930  0.08694645    -0.18800
C1425       C  0.70568673  0.02544284  0.09842575    -0.11000
C1426       C  0.69775656  0.05649771  0.10556487     0.21600
C1427       C  0.66152346  0.06110605  0.10140457    -0.20400
C1428       C  0.63444676  0.03635358  0.09011524    -0.11200
C1429       C  0.72945678  0.08861109  0.11609548    -0.15400
C1430       C  0.75647314  0.08088407  0.12430996    -0.29200
C1431       C  0.62009860  0.98651624  0.06899673    -0.03500
C1432       C  0.57882127  0.97882679  0.06621913    -0.40000
H1433       H  0.68688056  0.97893474  0.08116281     0.12700
H1434       H  0.73400081  0.02184697  0.10114106     0.12400
H1435       H  0.65509668  0.08525085  0.10659575     0.11800
H1436       H  0.60844469  0.04291435  0.08681134     0.12000
H1437       H  0.73091959  0.12069280  0.11707664     0.14800
H1438       H  0.75363643  0.04814581  0.12440728     0.13600
H1439       H  0.63951590  0.98322531  0.06060552     0.11200
H1440       H  0.55912385  0.98117899  0.07469349     0.13200
C1441       C  0.74471015  0.02735186  0.22422662     0.19300
C1442       C  0.73257108  0.03983614  0.23679593    -0.18800
C1443       C  0.72705609  0.01617441  0.24920128    -0.11000
C1444       C  0.73348615  0.97919005  0.24934728     0.21600
C1445       C  0.74303846  0.96491802  0.23664326    -0.20400
C1446       C  0.74903331  0.98895371  0.22418826    -0.11200
C1447       C  0.72840145  0.95394068  0.26248729    -0.15400
C1448       C  0.73671087  0.97301259  0.27537925    -0.29200
C1449       C  0.75783048  0.05890582  0.21221383    -0.03500
C1450       C  0.77562062  0.05547741  0.20000493    -0.40000
H1451       H  0.72872195  0.06905472  0.23715270     0.12700
H1452       H  0.71769632  0.02695862  0.25864473     0.12400
H1453       H  0.74715208  0.93585297  0.23644666     0.11800
H1454       H  0.75823490  0.97798427  0.21477446     0.12000
H1455       H  0.71687874  0.91842590  0.26148799     0.14800
H1456       H  0.75005482  0.00880658  0.27645799     0.13600
H1457       H  0.75889333  0.09040529  0.21431388     0.11200
H1458       H  0.77424162  0.02465850  0.19685036     0.13200
C1459       C  0.43120263  0.33455472  0.08363194     0.19300
C1460       C  0.39081330  0.30892447  0.09082180    -0.18800
C1461       C  0.39056179  0.29699398  0.10496349    -0.11000
C1462       C  0.43091608  0.31043252  0.11215244     0.21600
C1463       C  0.47110417  0.33631627  0.10497038    -0.20400
C1464       C  0.47136377  0.34799956  0.09091986    -0.11200
C1465       C  0.43314062  0.29190376  0.12603234    -0.15400
C1466       C  0.39873347  0.26941020  0.13491126    -0.29200
C1467       C  0.43090182  0.34661833  0.06856273    -0.03500
C1468       C  0.46494814  0.38388111  0.06303276    -0.40000
H1469       H  0.35939243  0.29776325  0.08544351     0.12700
H1470       H  0.35885524  0.27577190  0.10998068     0.12400
H1471       H  0.50262960  0.34612793  0.11010482     0.11800
H1472       H  0.50323208  0.36628725  0.08571514     0.12000
H1473       H  0.46358244  0.29115438  0.12816877     0.14800
H1474       H  0.36819040  0.27052386  0.13383920     0.13600
H1475       H  0.40125530  0.32643387  0.06223714     0.11200
H1476       H  0.49262717  0.40626892  0.06975391     0.13200
C1477       C  0.44171595  0.07789899  0.08840195     0.19300
C1478       C  0.43969346  0.06049668  0.10192857    -0.18800
C1479       C  0.43940455  0.08396810  0.11395891    -0.11000
C1480       C  0.44266000  0.12589243  0.11257402     0.21600
C1481       C  0.44511461  0.14339883  0.09907889    -0.20400
C1482       C  0.44411309  0.11947783  0.08709619    -0.11200
C1483       C  0.44482647  0.15337812  0.12480918    -0.15400
C1484       C  0.41647318  0.13753146  0.13578370    -0.29200
C1485       C  0.44626520  0.05475751  0.07590876    -0.03500
C1486       C  0.43046997  0.05588034  0.06301728    -0.40000
H1487       H  0.43864548  0.02882782  0.10317011     0.12700
H1488       H  0.43804844  0.07014026  0.12427798     0.12400
H1489       H  0.44783018  0.17584391  0.09781200     0.11800
H1490       H  0.44701618  0.13436865  0.07686177     0.12000
H1491       H  0.46562079  0.18939043  0.12354614     0.14800
H1492       H  0.39528928  0.10169108  0.13719182     0.13600
H1493       H  0.46407296  0.03663378  0.07736179     0.11200
H1494       H  0.40942648  0.07051110  0.06155525     0.13200
C1495       C  0.30564700  0.04091704  0.22602905     0.19300
C1496       C  0.26283437  0.00318369  0.22678006    -0.18800
C1497       C  0.25023504  0.97437043  0.23833158    -0.11000
C1498       C  0.28022093  0.98304540  0.24952401     0.21600
C1499       C  0.32369066  0.01977672  0.24846463    -0.20400
C1500       C  0.33644112  0.04831110  0.23681366    -0.11200
C1501       C  0.26562512  0.95867108  0.26315775    -0.15400
C1502       C  0.22880612  0.91817708  0.26467261    -0.29200
C1503       C  0.31459023  0.07529664  0.21519220    -0.03500
C1504       C  0.35539222  0.10508084  0.21044228    -0.40000
H1505       H  0.23835056  0.99709065  0.21868715     0.12700
H1506       H  0.21614053  0.94720315  0.23881239     0.12400
H1507       H  0.34731038  0.02757356  0.25698448     0.11800
H1508       H  0.36937535  0.07766457  0.23675263     0.12000
H1509       H  0.28465928  0.97621422  0.27248732     0.14800
H1510       H  0.21045748  0.89909032  0.25547195     0.13600
H1511       H  0.28627653  0.07778281  0.21144885     0.11200
H1512       H  0.38428687  0.10237295  0.21322256     0.13200
C1513       C  0.41231702  0.29988511  0.32586631     0.19300
C1514       C  0.44428942  0.32789611  0.33586758    -0.18800
C1515       C  0.48606087  0.33111580  0.33659189    -0.11000
C1516       C  0.49723715  0.30638803  0.32732783     0.21600
C1517       C  0.46543264  0.27876399  0.31725250    -0.20400
C1518       C  0.42362371  0.27569289  0.31649466    -0.11200
C1519       C  0.54134761  0.30843598  0.32774053    -0.15400
C1520       C  0.57141116  0.32750820  0.33825873    -0.29200
C1521       C  0.36834071  0.29758903  0.32432873    -0.03500
C1522       C  0.34953446  0.30935821  0.33465358    -0.40000
H1523       H  0.43795370  0.34863430  0.34292194     0.12700
H1524       H  0.50944697  0.35387151  0.34428422     0.12400
H1525       H  0.47292927  0.25940044  0.30992582     0.11800
H1526       H  0.40001364  0.25432114  0.30854523     0.12000
H1527       H  0.54871231  0.29177655  0.31932943     0.14800
H1528       H  0.56552874  0.34441551  0.34685675     0.13600
H1529       H  0.35137842  0.28672417  0.31423214     0.11200
H1530       H  0.36518350  0.31878970  0.34494675     0.13200
C1531       C  0.89693359  0.34493698  0.34102165     0.19300
C1532       C  0.86698383  0.33220786  0.35231856    -0.18800
C1533       C  0.82533986  0.32907251  0.35068986    -0.11000
C1534       C  0.81278414  0.33897867  0.33766350     0.21600
C1535       C  0.84324606  0.35266705  0.32649094    -0.20400
C1536       C  0.88476867  0.35579694  0.32812376    -0.11200
C1537       C  0.76910067  0.33650337  0.33513563    -0.15400
C1538       C  0.73683602  0.32505731  0.34480451    -0.29200
C1539       C  0.94029818  0.34634772  0.34303353    -0.03500
C1540       C  0.96294705  0.34138553  0.33233828    -0.40000
H1541       H  0.87558291  0.32400837  0.36241057     0.12700
H1542       H  0.80346888  0.31880629  0.35968140     0.12400
H1543       H  0.83495762  0.36118713  0.31640078     0.11800
H1544       H  0.90732243  0.36725670  0.31927627     0.12000
H1545       H  0.76307683  0.34491690  0.32465163     0.14800
H1546       H  0.73970918  0.31407514  0.35521417     0.13600
H1547       H  0.95219772  0.34812972  0.35374206     0.11200
H1548       H  0.94969947  0.33610942  0.32171128     0.13200
C1549       C  0.02560861  0.41104862  0.43805500     0.19300
C1550       C  0.06697697  0.41647184  0.43419037    -0.18800
C1551       C  0.07052589  0.39293988  0.42276196    -0.11000
C1552       C  0.03276684  0.36396015  0.41469638     0.21600
C1553       C  0.99113263  0.35794533  0.41866965    -0.20400
C1554       C  0.98742294  0.38080517  0.43037549    -0.11200
C1555       C  0.03773580  0.34490632  0.40118236    -0.15400
C1556       C  0.06924081  0.33347756  0.39944663    -0.29200
C1557       C  0.02463796  0.44199422  0.44874616    -0.03500
C1558       C  0.99061623  0.43141739  0.45763090    -0.40000
H1559       H  0.09695238  0.44013480  0.43978034     0.12700
H1560       H  0.10335879  0.39957600  0.41976518     0.12400
H1561       H  0.96169059  0.33646337  0.41248981     0.11800
H1562       H  0.95521663  0.37679509  0.43289485     0.12000
H1563       H  0.01791564  0.34425772  0.39222208     0.14800
H1564       H  0.08752471  0.33249161  0.40860668     0.13600
H1565       H  0.05346411  0.47557062  0.44925471     0.11200
H1566       H  0.96284923  0.39732643  0.45813481     0.13200
C1567       C  0.38070853  0.43266716  0.43876970     0.19300
C1568       C  0.39131569  0.42544494  0.42514858    -0.18800
C1569       C  0.36055256  0.41295125  0.41419491    -0.11000
C1570       C  0.31822893  0.40785501  0.41651051     0.21600
C1571       C  0.30683046  0.41350815  0.43023902    -0.20400
C1572       C  0.33785537  0.42614205  0.44128519    -0.11200
C1573       C  0.28520279  0.39480342  0.40483959    -0.15400
C1574       C  0.29794993  0.40450680  0.39132152    -0.29200
C1575       C  0.41713440  0.45125410  0.44940236    -0.03500
C1576       C  0.41279759  0.45747248  0.46318819    -0.40000
H1577       H  0.42396334  0.43007680  0.42289140     0.12700
H1578       H  0.37009827  0.40689011  0.40395969     0.12400
H1579       H  0.27421224  0.40911205  0.43235023     0.11800
H1580       H  0.32848370  0.43191163  0.45158117     0.12000
H1581       H  0.24996217  0.37562802  0.40737027     0.14800
H1582       H  0.33305824  0.42495273  0.38881810     0.13600
H1583       H  0.45062056  0.46332259  0.44541037     0.11200
H1584       H  0.38021657  0.44369939  0.46797783     0.13200
C1585       C  0.94757645  0.21438607  0.22510816     0.19300
C1586       C  0.96112976  0.18995307  0.23349107    -0.18800
C1587       C  0.97610477  0.20314321  0.24724400    -0.11000
C1588       C  0.97899308  0.24199722  0.25301587     0.21600
C1589       C  0.96562696  0.26681146  0.24466631    -0.20400
C1590       C  0.95004856  0.25322811  0.23082265    -0.11200
C1591       C  0.99606209  0.25710077  0.26762996    -0.15400
C1592       C  0.02516886  0.24731503  0.27374517    -0.29200
C1593       C  0.92707815  0.19452588  0.21121385    -0.03500
C1594       C  0.90394863  0.20716907  0.20283521    -0.40000
H1595       H  0.95883630  0.15942176  0.22953050     0.12700
H1596       H  0.98442006  0.18205585  0.25339236     0.12400
H1597       H  0.96735691  0.29683330  0.24885599     0.11800
H1598       H  0.93961971  0.27284821  0.22478515     0.12000
H1599       H  0.98764992  0.27970968  0.27297498     0.14800
H1600       H  0.03775784  0.22913755  0.26782784     0.13600
H1601       H  0.92525460  0.16293965  0.20861996     0.11200
H1602       H  0.90474767  0.23863722  0.20441129     0.13200
C1603       C  0.28971966  0.29661196  0.25295959     0.19300
C1604       C  0.33318908  0.30554520  0.25022731    -0.18800
C1605       C  0.34212051  0.28698344  0.23839078    -0.11000
C1606       C  0.30738698  0.25821731  0.22927050     0.21600
C1607       C  0.26419820  0.25005008  0.23184999    -0.20400
C1608       C  0.25545382  0.26931548  0.24346405    -0.11200
C1609       C  0.31369951  0.23095389  0.21842205    -0.15400
C1610       C  0.35107120  0.24530353  0.21081542    -0.29200
C1611       C  0.27954691  0.31096233  0.26657457    -0.03500
C1612       C  0.24540789  0.31866571  0.26803900    -0.40000
H1613       H  0.36000383  0.32582636  0.25749534     0.12700
H1614       H  0.37556381  0.29292743  0.23687471     0.12400
H1615       H  0.23679284  0.22736625  0.22511746     0.11800
H1616       H  0.22130892  0.26048853  0.24543164     0.12000
H1617       H  0.28662582  0.19675635  0.21691943     0.14800
H1618       H  0.37736607  0.28012451  0.21130796     0.13600
H1619       H  0.29889217  0.31236107  0.27576909     0.11200
H1620       H  0.22753480  0.31945445  0.25874617     0.13200
loop_ 
_geom_bond_atom_site_label_1 
_geom_bond_atom_site_label_2 
_geom_bond_distance 
_geom_bond_site_symmetry_2 
_ccdc_geom_bond_type 
O1           Mg3   2.163       .  S
O1           Mg9   2.163       .  S
O1           C36   1.237       .  S
C2           O15   1.235       .  S
C2           O39   1.270       .  A
C2           H41   1.081       .  S
Mg3          O32   2.161       .  S
Mg3          O47   2.336       .  S
Mg3          O43   2.292       .  S
Mg3          O14   2.306       .  S
O4          Mg46   2.154       .  S
O4          Mg29   2.124       .  S
O4           C25   1.235       .  S
O5           C36   1.272       .  A
O5          Mg29   2.301       .  S
C6            O8   1.274       .  A
C6           O20   1.269       .  A
C6         C1592   1.473       .  S
O7           C35   1.271       .  A
O7           Mg9   2.303       .  S
O8          Mg40   2.311       .  S
Mg9          O15   2.153       .  S
Mg9          O23   2.259       .  S
Mg9          O11   2.325       .  S
C10          O48   1.270       .  A
C10          O16   1.277       .  A
C10        C1612   1.480       .  S
O11          C18   1.276       .  A
H12          C25   1.081       .  S
C13          O27   1.238       .  S
C13          O28   1.273       .  A
C13          H38   1.081       .  S
O14          C37   1.271       .  A
O15         Mg29   2.156       .  S
O16         Mg46   2.322       .  S
C17          O30   1.275       .  A
C17          O22   1.277       .  A
C17        C1522   1.482       .  S
C18          O45   1.269       .  A
C18        C1574   1.474       .  S
Mg19         O26   2.154       .  S
Mg19         O27   2.156       .  S
Mg19         O20   2.274       .  S
Mg19         O21   2.285       .  S
Mg19         O48   2.259       .  S
O21          C25   1.268       .  A
O22         Mg29   2.317       .  S
O23          C42   1.272       .  A
O24          C44   1.276       .  A
O24         Mg40   2.309       .  S
O26         Mg40   2.147       .  S
O26          C37   1.235       .  S
O27         Mg46   2.152       .  S
O28         Mg40   2.309       .  S
Mg29         O45   2.241       .  S
O30         Mg46   2.285       .  S
H31          C36   1.081       .  S
O32         Mg40   2.164       .  S
O32          C35   1.236       .  S
H33          C35   1.081       .  S
H34          C37   1.081       .  S
O39         Mg46   2.301       .  S
C42          O47   1.279       .  A
C42        C1556   1.481       .  S
O43          C44   1.276       .  A
C44        C1540   1.480   1_455  S
C49        C1610   1.489       .  S
C49          C50   1.400       .  A
C49          C54   1.417       .  A
C50          H69   1.085       .  S
C50          C51   1.398       .  A
C51        C1504   1.484       .  S
C51          C52   1.414       .  A
C52          C53   1.421       .  A
C52          C59   1.406       .  A
C53          C54   1.423       .  A
C53          C58   1.422       .  A
C54          C55   1.407       .  A
C55          H65   1.082       .  S
C55          C56   1.396       .  A
C56          H66   1.083       .  S
C56          C57   1.404       .  A
C57          C58   1.424       .  A
C57          C64   1.413       .  A
C58          C61   1.426       .  A
C59          H67   1.083       .  S
C59          C60   1.395       .  A
C60          H68   1.082       .  S
C60          C61   1.405       .  A
C61          C62   1.417       .  A
C62        C1484   1.496       .  S
C62          C63   1.398       .  A
C63          H70   1.084       .  S
C63          C64   1.395       .  A
C64        C1466   1.488       .  S
C71        C1594   1.492       .  S
C71          C72   1.396       .  A
C71          C76   1.415       .  A
C72          H91   1.085       .  S
C72          C73   1.396       .  A
C73        C1450   1.487       .  S
C73          C74   1.412       .  A
C74          C75   1.423       .  A
C74          C81   1.403       .  A
C75          C76   1.425       .  A
C75          C80   1.423       .  A
C76          C77   1.403       .  A
C77          H87   1.083       .  S
C77          C78   1.396       .  A
C78          H88   1.081       .  S
C78          C79   1.409       .  A
C79          C80   1.423       .  A
C79          C86   1.419       .  A
C80          C83   1.422       .  A
C81          H89   1.083       .  S
C81          C82   1.393       .  A
C82          H90   1.082       .  S
C82          C83   1.407       .  A
C83          C84   1.415       .  A
C84        C1430   1.490       .  S
C84          C85   1.401       .  A
C85          H92   1.084       .  S
C85          C86   1.403       .  A
C86        C1414   1.494       .  S
O93         Mg95   2.145       .  S
O93        Mg101   2.159       .  S
O93         C128   1.236       .  S
C94         O107   1.235       .  S
C94         O131   1.270       .  A
C94         H133   1.081       .  S
Mg95        O124   2.157       .  S
Mg95        O139   2.315       .  S
Mg95        O135   2.287       .  S
Mg95        O106   2.297       .  S
O96        Mg138   2.167       .  S
O96        Mg121   2.158       .  S
O96         C117   1.235       .  S
O97         C128   1.269       .  A
O97        Mg121   2.292       .  S
C98         O100   1.270       .  A
C98         O112   1.276       .  A
C98        C1376   1.478       .  S
O99         C127   1.269       .  A
O99        Mg101   2.290       .  S
O100       Mg132   2.251       .  S
Mg101       O107   2.159       .  S
Mg101       O115   2.278       .  S
Mg101       O103   2.294       .  S
C102        O140   1.271       .  A
C102        O108   1.280       .  A
C102       C1358   1.481       .  S
O103        C110   1.275       .  A
H104        C117   1.081       .  S
C105        O119   1.237       .  S
C105        O120   1.272       .  A
C105        H130   1.081       .  S
O106        C129   1.270       .  A
O107       Mg121   2.168       .  S
O108       Mg138   2.340       .  S
C109        O122   1.277   1_655  A
C109        O114   1.278       .  A
C109       C1340   1.483       .  S
C110        O137   1.276       .  A
C110       C1394   1.481   1_455  S
Mg111       O118   2.151       .  S
Mg111       O119   2.167       .  S
Mg111       O112   2.323       .  S
Mg111       O113   2.299       .  S
Mg111       O140   2.254       .  S
O113        C117   1.270       .  A
O114       Mg121   2.318   1_655  S
O115        C134   1.274       .  A
O116        C136   1.276       .  A
O116       Mg132   2.308       .  S
O118       Mg132   2.160       .  S
O118        C129   1.236       .  S
O119       Mg138   2.167       .  S
O120       Mg132   2.304       .  S
Mg121       O137   2.296       .  S
O122       Mg138   2.293       .  S
H123        C128   1.081       .  S
O124       Mg132   2.130       .  S
O124        C127   1.236       .  S
H125        C127   1.081       .  S
H126        C129   1.081       .  S
O131       Mg138   2.300       .  S
C134        O139   1.278       .  A
C134       C1502   1.482       .  S
O135        C136   1.274       .  A
C136       C1324   1.483   1_565  S
O141       Mg143   2.135       .  S
O141       Mg149   2.156       .  S
O141        C176   1.237       .  S
C142        O155   1.235       .  S
C142        O179   1.270       .  A
C142        H181   1.081       .  S
Mg143       O172   2.156       .  S
Mg143       O187   2.318       .  S
Mg143       O183   2.251       .  S
Mg143       O154   2.296       .  S
O144       Mg186   2.161       .  S
O144       Mg169   2.152       .  S
O144        C165   1.235       .  S
O145        C176   1.270       .  A
O145       Mg169   2.293       .  S
C146        O148   1.274       .  A
C146        O160   1.273       .  A
C146       C1286   1.476       .  S
O147        C175   1.268       .  A
O147       Mg149   2.291       .  S
O148       Mg180   2.286       .  S
Mg149       O155   2.142       .  S
Mg149       O163   2.257       .  S
Mg149       O151   2.283       .  S
C150        O188   1.271       .  A
C150        O156   1.279       .  A
C150       C1270   1.483       .  S
O151        C158   1.272       .  A
H152        C165   1.081       .  S
C153        O167   1.237       .  S
C153        O168   1.271       .  A
C153        H178   1.081       .  S
O154        C177   1.270       .  A
O155       Mg169   2.152       .  S
O156       Mg186   2.335       .  S
C157        O170   1.275       .  A
C157        O162   1.272       .  A
C157       C1232   1.471   1_565  S
C158        O185   1.271       .  A
C158       C1448   1.476       .  S
Mg159       O166   2.151       .  S
Mg159       O167   2.163       .  S
Mg159       O160   2.286       .  S
Mg159       O161   2.296       .  S
Mg159       O188   2.260       .  S
O161        C165   1.269       .  A
O162       Mg169   2.283       .  S
O163        C182   1.271       .  A
O164        C184   1.280       .  A
O164       Mg180   2.332       .  S
O166       Mg180   2.169       .  S
O166        C177   1.236       .  S
O167       Mg186   2.156       .  S
O168       Mg180   2.301       .  S
Mg169       O185   2.275       .  S
O170       Mg186   2.288       .  S
H171        C176   1.081       .  S
O172       Mg180   2.142       .  S
O172        C175   1.235       .  S
H173        C175   1.081       .  S
H174        C177   1.081       .  S
O179       Mg186   2.303       .  S
C182        O187   1.276       .  A
C182       C1304   1.478       .  S
O183        C184   1.271       .  A
C184       C1252   1.478       .  S
C189       C1396   1.499       .  S
C189        C190   1.403       .  A
C189        C194   1.422       .  A
C190        H209   1.084       .  S
C190        C191   1.396       .  A
C191       C1306   1.490       .  S
C191        C192   1.412       .  A
C192        C193   1.424       .  A
C192        C199   1.404       .  A
C193        C194   1.424       .  A
C193        C198   1.424       .  A
C194        C195   1.408       .  A
C195        H205   1.082       .  S
C195        C196   1.400       .  A
C196        H206   1.082       .  S
C196        C197   1.406       .  A
C197        C198   1.425       .  A
C197        C204   1.421       .  A
C198        C201   1.422       .  A
C199        H207   1.082       .  S
C199        C200   1.390       .  A
C200        H208   1.082       .  S
C200        C201   1.405       .  A
C201        C202   1.413       .  A
C202       C1214   1.483       .  S
C202        C203   1.393       .  A
C203        H210   1.086       .  S
C203        C204   1.401       .  A
C204       C1198   1.496       .  S
O211       Mg213   2.154       .  S
O211       Mg219   2.161   1_545  S
O211        C246   1.236       .  S
C212        O225   1.237       .  S
C212        O249   1.272   1_556  A
C212        H251   1.081       .  S
Mg213       O242   2.158   1_545  S
Mg213       O257   2.305   1_545  S
Mg213       O253   2.285       .  S
Mg213       O224   2.300   1_556  S
O214       Mg256   2.151   1_545  S
O214       Mg239   2.138   1_554  S
O214        C235   1.236       .  S
O215        C246   1.270       .  A
O215       Mg239   2.296       .  S
C216        O218   1.273       .  A
C216        O230   1.270       .  A
C216       C1432   1.476       .  S
O217        C245   1.270       .  A
O217       Mg219   2.303       .  S
O218       Mg250   2.289       .  S
Mg219       O225   2.168       .  S
Mg219       O233   2.294       .  S
Mg219       O221   2.316       .  S
C220        O258   1.269       .  A
C220        O226   1.278       .  A
C220       C1486   1.477       .  S
O221        C228   1.276   1_565  A
H222        C235   1.081       .  S
C223        O237   1.237       .  S
C223        O238   1.273       .  A
C223        H248   1.081       .  S
O224        C247   1.270       .  A
O225       Mg239   2.162   1_565  S
O226       Mg256   2.340   1_545  S
C227        O240   1.275       .  A
C227        O232   1.275   1_554  A
C227       C1144   1.480   1_554  S
C228        O255   1.270       .  A
C228       C1162   1.477       .  S
Mg229       O236   2.140       .  S
Mg229       O237   2.142   1_545  S
Mg229       O230   2.287   1_545  S
Mg229       O231   2.297       .  S
Mg229       O258   2.236       .  S
O231        C235   1.270       .  A
O232       Mg239   2.307   1_565  S
O233        C252   1.275       .  A
O234        C254   1.274   1_565  A
O234       Mg250   2.301       .  S
O236       Mg250   2.139   1_545  S
O236        C247   1.236       .  S
O237       Mg256   2.153       .  S
O238       Mg250   2.312       .  S
Mg239       O255   2.252       .  S
O240       Mg256   2.291       .  S
H241        C246   1.081       .  S
O242       Mg250   2.150   1_556  S
O242        C245   1.235       .  S
H243        C245   1.081       .  S
H244        C247   1.081       .  S
O249       Mg256   2.311       .  S
C252        O257   1.275       .  A
C252       C1180   1.479       .  S
O253        C254   1.274   1_556  A
C254       C1124   1.479       .  S
O259       Mg261   2.139       .  S
O259       Mg267   2.148       .  S
O259        C294   1.236       .  S
C260        O273   1.233       .  S
C260        O297   1.268       .  A
C260        H299   1.081       .  S
Mg261       O290   2.160       .  S
Mg261       O305   2.306       .  S
Mg261       O301   2.255       .  S
Mg261       O272   2.291   1_554  S
O262       Mg304   2.174       .  S
O262       Mg287   2.162   1_556  S
O262        C283   1.237       .  S
O263        C294   1.271       .  A
O263       Mg287   2.300       .  S
C264        O266   1.274       .  A
C264        O278   1.271       .  A
C264       C1090   1.472       .  S
O265        C293   1.270       .  A
O265       Mg267   2.291       .  S
O266       Mg298   2.280       .  S
Mg267       O273   2.142       .  S
Mg267       O281   2.261       .  S
Mg267       O269   2.264       .  S
C268        O306   1.269       .  A
C268        O274   1.278       .  A
C268       C1106   1.483       .  S
O269        C276   1.270       .  A
H270        C283   1.081       .  S
C271        O285   1.237       .  S
C271        O286   1.273       .  A
C271        H296   1.081       .  S
O272        C295   1.268       .  A
O273       Mg287   2.158       .  S
O274       Mg304   2.340       .  S
C275        O288   1.276   1_554  A
C275        O280   1.278       .  A
C275       C1052   1.479       .  S
C276        O303   1.277       .  A
C276       C1468   1.474       .  S
Mg277       O284   2.143       .  S
Mg277       O285   2.155       .  S
Mg277       O278   2.280       .  S
Mg277       O279   2.297       .  S
Mg277       O306   2.250       .  S
O279        C283   1.271       .  A
O280       Mg287   2.314       .  S
O281        C300   1.271       .  A
O282        C302   1.280       .  A
O282       Mg298   2.337       .  S
O284       Mg298   2.160       .  S
O284        C295   1.234       .  S
O285       Mg304   2.164       .  S
O286       Mg298   2.312       .  S
Mg287       O303   2.318       .  S
O288       Mg304   2.278       .  S
H289        C294   1.081       .  S
O290       Mg298   2.134   1_554  S
O290        C293   1.237       .  S
H291        C293   1.081       .  S
H292        C295   1.081       .  S
O297       Mg304   2.294   1_554  S
C300        O305   1.274       .  A
C300       C1216   1.478       .  S
O301        C302   1.271   1_554  A
C302       C1070   1.479       .  S
O307       Mg309   2.156       .  S
O307       Mg315   2.171   1_455  S
O307        C342   1.236       .  S
C308        O321   1.237       .  S
C308        O345   1.272   1_554  A
C308        H347   1.081       .  S
Mg309       O338   2.155   1_455  S
Mg309       O353   2.356   1_455  S
Mg309       O349   2.304       .  S
Mg309       O320   2.319       .  S
O310       Mg352   2.147   1_455  S
O310       Mg335   2.140   1_556  S
O310        C331   1.234       .  S
O311        C342   1.270       .  A
O311       Mg335   2.294       .  S
C312        O314   1.270       .  A
C312        O326   1.278   1_655  A
C312       C1016   1.480       .  S
O313        C341   1.268       .  A
O313       Mg315   2.295       .  S
O314       Mg346   2.258       .  S
Mg315       O321   2.151       .  S
Mg315       O329   2.260       .  S
Mg315       O317   2.329       .  S
C316        O354   1.278       .  A
C316        O322   1.274       .  A
C316       C1034   1.480       .  S
O317        C324   1.278       .  A
H318        C331   1.081       .  S
C319        O333   1.237       .  S
C319        O334   1.271       .  A
C319        H344   1.081       .  S
O320        C343   1.274   1_554  A
O321       Mg335   2.157   1_655  S
O322       Mg352   2.294   1_455  S
C323        O336   1.273       .  A
C323        O328   1.273   1_556  A
C323        C980   1.480       .  S
C324        O351   1.269   1_655  A
C324       C1412   1.480       .  S
Mg325       O332   2.178       .  S
Mg325       O333   2.167   1_455  S
Mg325       O326   2.325       .  S
Mg325       O327   2.299       .  S
Mg325       O354   2.319       .  S
O327        C331   1.269       .  A
O328       Mg335   2.297   1_655  S
O329        C348   1.273       .  A
O330        C350   1.274   1_556  A
O330       Mg346   2.298   1_455  S
O332       Mg346   2.158   1_455  S
O332        C343   1.238       .  S
O333       Mg352   2.149       .  S
O334       Mg346   2.295       .  S
Mg335       O351   2.251       .  S
O336       Mg352   2.289       .  S
H337        C342   1.081       .  S
O338       Mg346   2.153   1_554  S
O338        C341   1.234       .  S
H339        C341   1.081       .  S
H340        C343   1.081       .  S
O345       Mg352   2.303       .  S
C348        O353   1.282       .  A
C348       C1196   1.484       .  S
O349        C350   1.276       .  A
C350       C1000   1.480       .  S
O355       Mg357   2.144       .  S
O355       Mg363   2.160       .  S
O355        C390   1.235       .  S
C356        O369   1.236       .  S
C356        O393   1.270       .  A
C356        H395   1.081       .  S
Mg357       O386   2.161       .  S
Mg357       O401   2.306       .  S
Mg357       O397   2.277       .  S
Mg357       O368   2.294       .  S
O358       Mg400   2.161       .  S
O358       Mg383   2.150       .  S
O358        C379   1.236       .  S
O359        C390   1.269       .  A
O359       Mg383   2.294       .  S
C360        O362   1.272       .  A
C360        O374   1.276       .  A
C360        C908   1.476       .  S
O361        C389   1.269       .  A
O361       Mg363   2.296       .  S
O362       Mg394   2.263       .  S
Mg363       O369   2.168       .  S
Mg363       O377   2.298       .  S
Mg363       O365   2.309       .  S
C364        O402   1.273       .  A
C364        O370   1.276       .  A
C364        C928   1.480       .  S
O365        C372   1.277       .  A
H366        C379   1.081       .  S
C367        O381   1.236       .  S
C367        O382   1.270       .  A
C367        H392   1.081       .  S
O368        C391   1.270       .  A
O369       Mg383   2.174       .  S
O370       Mg400   2.315       .  S
C371        O384   1.273       .  A
C371        O376   1.278       .  A
C371        C874   1.486       .  S
C372        O399   1.272       .  A
C372        C964   1.474       .  S
Mg373       O380   2.150       .  S
Mg373       O381   2.159       .  S
Mg373       O374   2.304       .  S
Mg373       O375   2.300       .  S
Mg373       O402   2.274       .  S
O375        C379   1.270       .  A
O376       Mg383   2.327       .  S
O377        C396   1.276       .  A
O378        C398   1.276       .  A
O378       Mg394   2.310       .  S
O380       Mg394   2.166       .  S
O380        C391   1.236       .  S
O381       Mg400   2.151       .  S
O382       Mg394   2.298       .  S
Mg383       O399   2.258       .  S
O384       Mg400   2.283       .  S
H385        C390   1.081       .  S
O386       Mg394   2.141       .  S
O386        C389   1.235       .  S
H387        C389   1.081       .  S
H388        C391   1.081       .  S
O393       Mg400   2.300       .  S
C396        O401   1.276       .  A
C396        C944   1.483       .  S
O397        C398   1.273       .  A
C398        C890   1.479   1_545  S
C403       C1108   1.495       .  S
C403        C404   1.399       .  A
C403        C408   1.416       .  A
C404        H423   1.084       .  S
C404        C405   1.405       .  A
C405       C1036   1.499       .  S
C405        C406   1.422       .  A
C406        C407   1.423       .  A
C406        C413   1.408       .  A
C407        C408   1.424       .  A
C407        C412   1.427       .  A
C408        C409   1.405       .  A
C409        H419   1.082       .  S
C409        C410   1.394       .  A
C410        H420   1.082       .  S
C410        C411   1.406       .  A
C411        C412   1.423       .  A
C411        C418   1.416       .  A
C412        C415   1.425       .  A
C413        H421   1.082       .  S
C413        C414   1.399       .  A
C414        H422   1.082       .  S
C414        C415   1.406       .  A
C415        C416   1.423       .  A
C416        C854   1.501       .  S
C416        C417   1.403       .  A
C417        H424   1.084       .  S
C417        C418   1.400       .  A
C418        C926   1.493       .  S
C425       C1160   1.491       .  S
C425        C426   1.402       .  A
C425        C430   1.415       .  A
C426        H445   1.084       .  S
C426        C427   1.403       .  A
C427       C1018   1.493       .  S
C427        C428   1.418       .  A
C428        C429   1.422       .  A
C428        C435   1.409       .  A
C429        C430   1.422       .  A
C429        C434   1.423       .  A
C430        C431   1.408       .  A
C431        H441   1.082       .  S
C431        C432   1.393       .  A
C432        H442   1.082       .  S
C432        C433   1.403       .  A
C433        C434   1.424       .  A
C433        C440   1.413       .  A
C434        C437   1.424       .  A
C435        H443   1.082       .  S
C435        C436   1.395       .  A
C436        H444   1.082       .  S
C436        C437   1.403       .  A
C437        C438   1.415       .  A
C438        C836   1.490       .  S
C438        C439   1.395       .  A
C439        H446   1.086       .  S
C439        C440   1.395       .  A
C440        C910   1.488       .  S
O447       Mg449   2.156       .  S
O447       Mg455   2.166       .  S
O447        C482   1.236       .  S
C448        O461   1.237       .  S
C448        O485   1.272       .  A
C448        H487   1.081       .  S
Mg449       O478   2.153       .  S
Mg449       O493   2.324       .  S
Mg449       O489   2.293       .  S
Mg449       O460   2.308       .  S
O450       Mg492   2.150       .  S
O450       Mg475   2.149       .  S
O450        C471   1.235       .  S
O451        C482   1.270       .  A
O451       Mg475   2.296       .  S
C452        O454   1.271       .  A
C452        O466   1.279       .  A
C452        C856   1.485       .  S
O453        C481   1.270       .  A
O453       Mg455   2.302       .  S
O454       Mg486   2.259       .  S
Mg455       O461   2.152       .  S
Mg455       O469   2.269       .  S
Mg455       O457   2.318       .  S
C456        O494   1.275       .  A
C456        O462   1.276       .  A
C456        C782   1.478       .  S
O457        C464   1.276       .  A
H458        C471   1.081       .  S
C459        O473   1.235       .  S
C459        O474   1.269       .  A
C459        H484   1.081       .  S
O460        C483   1.272       .  A
O461       Mg475   2.161       .  S
O462       Mg492   2.308       .  S
C463        O476   1.275   1_565  A
C463        O468   1.275   1_565  A
C463        C748   1.483       .  S
C464        O491   1.272       .  A
C464        C800   1.480       .  S
Mg465       O472   2.156       .  S
Mg465       O473   2.171       .  S
Mg465       O466   2.349       .  S
Mg465       O467   2.300       .  S
Mg465       O494   2.275       .  S
O467        C471   1.270       .  A
O468       Mg475   2.308       .  S
O469        C488   1.274       .  A
O470        C490   1.272       .  A
O470       Mg486   2.292       .  S
O472       Mg486   2.157       .  S
O472        C483   1.237       .  S
O473       Mg492   2.154       .  S
O474       Mg486   2.291       .  S
Mg475       O491   2.273       .  S
O476       Mg492   2.288       .  S
H477        C482   1.081       .  S
O478       Mg486   2.154       .  S
O478        C481   1.235       .  S
H479        C481   1.081       .  S
H480        C483   1.081       .  S
O485       Mg492   2.303       .  S
C488        O493   1.278       .  A
C488        C818   1.482       .  S
O489        C490   1.275       .  A
C490        C764   1.480   1_655  S
O495       Mg497   2.146       .  S
O495       Mg503   2.155       .  S
O495        C530   1.236       .  S
C496        O509   1.235       .  S
C496        O533   1.270       .  A
C496        H535   1.081       .  S
Mg497       O526   2.152       .  S
Mg497       O541   2.293       .  S
Mg497       O537   2.266       .  S
Mg497       O508   2.292       .  S
O498       Mg540   2.165       .  S
O498       Mg523   2.162       .  S
O498        C519   1.236       .  S
O499        C530   1.271       .  A
O499       Mg523   2.301       .  S
C500        O502   1.272       .  A
C500        O514   1.274       .  A
C500        C712   1.474       .  S
O501        C529   1.270       .  A
O501       Mg503   2.297       .  S
O502       Mg534   2.275       .  S
Mg503       O509   2.166       .  S
Mg503       O517   2.301       .  S
Mg503       O505   2.288       .  S
C504        O542   1.271       .  A
C504        O510   1.279       .  A
C504        C728   1.483       .  S
O505        C512   1.274       .  A
H506        C519   1.081       .  S
C507        O521   1.236       .  S
C507        O522   1.269       .  A
C507        H532   1.081       .  S
O508        C531   1.269       .  A
O509       Mg523   2.168       .  S
O510       Mg540   2.341       .  S
C511        O524   1.273       .  A
C511        O516   1.280       .  A
C511        C656   1.484   1_655  S
C512        O539   1.275       .  A
C512        C838   1.480       .  S
Mg513       O520   2.143       .  S
Mg513       O521   2.157       .  S
Mg513       O514   2.286       .  S
Mg513       O515   2.298       .  S
Mg513       O542   2.259       .  S
O515        C519   1.270       .  A
O516       Mg523   2.336       .  S
O517        C536   1.275       .  A
O518        C538   1.277       .  A
O518       Mg534   2.318       .  S
O520       Mg534   2.173       .  S
O520        C531   1.236       .  S
O521       Mg540   2.149       .  S
O522       Mg534   2.295       .  S
Mg523       O539   2.287       .  S
O524       Mg540   2.269       .  S
H525        C530   1.081       .  S
O526       Mg534   2.139       .  S
O526        C529   1.236       .  S
H527        C529   1.081       .  S
H528        C531   1.081       .  S
O533       Mg540   2.301       .  S
C536        O541   1.273       .  A
C536        C694   1.478       .  S
O537        C538   1.272       .  A
C538        C674   1.481       .  S
C543       C1088   1.484       .  S
C543        C544   1.397       .  A
C543        C548   1.412       .  A
C544        H563   1.085       .  S
C544        C545   1.397       .  A
C545       C1178   1.493       .  S
C545        C546   1.417       .  A
C546        C547   1.425       .  A
C546        C553   1.404       .  A
C547        C548   1.421       .  A
C547        C552   1.423       .  A
C548        C549   1.405       .  A
C549        H559   1.082       .  S
C549        C550   1.392       .  A
C550        H560   1.082       .  S
C550        C551   1.406       .  A
C551        C552   1.422       .  A
C551        C558   1.414       .  A
C552        C555   1.420       .  A
C553        H561   1.082       .  S
C553        C554   1.395       .  A
C554        H562   1.082       .  S
C554        C555   1.409       .  A
C555        C556   1.417       .  A
C556        C784   1.489       .  S
C556        C557   1.404       .  A
C557        H564   1.085       .  S
C557        C558   1.400       .  A
C558        C692   1.489       .  S
C565       C1558   1.492       .  S
C565        C566   1.401       .  A
C565        C570   1.418       .  A
C566        H585   1.085       .  S
C566        C567   1.401       .  A
C567       C1360   1.491       .  S
C567        C568   1.418       .  A
C568        C569   1.423       .  A
C568        C575   1.406       .  A
C569        C570   1.423       .  A
C569        C574   1.426       .  A
C570        C571   1.406       .  A
C571        H581   1.082       .  S
C571        C572   1.396       .  A
C572        H582   1.082       .  S
C572        C573   1.407       .  A
C573        C574   1.423       .  A
C573        C580   1.419       .  A
C574        C577   1.423       .  A
C575        H583   1.082       .  S
C575        C576   1.395       .  A
C576        H584   1.082       .  S
C576        C577   1.406       .  A
C577        C578   1.417       .  A
C578        C730   1.493       .  S
C578        C579   1.399       .  A
C579        H586   1.084       .  S
C579        C580   1.402       .  A
C580        C820   1.495       .  S
C587       C1288   1.494       .  S
C587        C588   1.400       .  A
C587        C592   1.416       .  A
C588        H607   1.084       .  S
C588        C589   1.397       .  A
C589       C1576   1.491       .  S
C589        C590   1.413       .  A
C590        C591   1.424       .  A
C590        C597   1.405       .  A
C591        C592   1.424       .  A
C591        C596   1.422       .  A
C592        C593   1.406       .  A
C593        H603   1.082       .  S
C593        C594   1.395       .  A
C594        H604   1.082       .  S
C594        C595   1.406       .  A
C595        C596   1.424       .  A
C595        C602   1.417       .  A
C596        C599   1.423       .  A
C597        H605   1.082       .  S
C597        C598   1.392       .  A
C598        H606   1.082       .  S
C598        C599   1.404       .  A
C599        C600   1.411       .  A
C600        C962   1.488       .  S
C600        C601   1.396       .  A
C601        H608   1.084       .  S
C601        C602   1.400       .  A
C602        C710   1.494       .  S
C609       C1268   1.493       .  S
C609        C610   1.400       .  A
C609        C614   1.417   1_565  A
C610        H629   1.084       .  S
C610        C611   1.403       .  A
C611       C1378   1.496       .  S
C611        C612   1.420       .  A
C612        C613   1.424   1_565  A
C612        C619   1.407       .  A
C613        C614   1.423       .  A
C613        C618   1.427       .  A
C614        C615   1.405       .  A
C615        H625   1.082       .  S
C615        C616   1.395       .  A
C616        H626   1.081       .  S
C616        C617   1.407       .  A
C617        C618   1.425       .  A
C617        C624   1.420       .  A
C618        C621   1.424       .  A
C619        H627   1.081       .  S
C619        C620   1.395   1_565  A
C620        H628   1.082       .  S
C620        C621   1.405       .  A
C621        C622   1.417       .  A
C622        C946   1.494       .  S
C622        C623   1.399       .  A
C623        H630   1.083       .  S
C623        C624   1.402       .  A
C624        C802   1.500       .  S
C631        C982   1.496       .  S
C631        C632   1.416   1_655  A
C631        C636   1.415   1_545  A
C632       C1054   1.497       .  S
C632        C633   1.423   1_556  A
C633       C1142   1.491       .  S
C633        C634   1.424   1_445  A
C634        C998   1.494       .  S
C634        C635   1.421   1_554  A
C635       C1072   1.499       .  S
C635        C636   1.418       .  A
C636       C1126   1.489       .  S
C637       C1234   1.491       .  S
C637        C638   1.418       .  A
C637        C642   1.418       .  A
C638       C1538   1.495       .  S
C638        C639   1.417       .  A
C639       C1342   1.496       .  S
C639        C640   1.423       .  A
C640       C1250   1.490       .  S
C640        C641   1.423       .  A
C641       C1520   1.495       .  S
C641        C642   1.422       .  A
C642       C1322   1.502       .  S
C643        C892   1.498       .  S
C643        C644   1.419       .  A
C643        C648   1.420       .  A
C644        C658   1.503       .  S
C644        C645   1.423       .  A
C645        C766   1.485       .  S
C645        C646   1.425       .  A
C646        C872   1.507       .  S
C646        C647   1.422       .  A
C647        C676   1.498       .  S
C647        C648   1.424       .  A
C648        C746   1.492       .  S
C649        C657   1.493       .  S
C649        C650   1.404       .  A
C649        C654   1.408       .  A
C650        H659   1.083       .  S
C650        C651   1.403       .  A
C651        H660   1.081       .  S
C651        C652   1.410       .  A
C652        C655   1.496       .  S
C652        C653   1.405       .  A
C653        H661   1.083       .  S
C653        C654   1.402       .  A
C654        H662   1.081       .  S
C655        H663   1.087       .  S
C655        C656   1.349       .  D
C656        H664   1.084       .  S
C657        H665   1.086       .  S
C657        C658   1.349       .  D
C658        H666   1.085       .  S
C667        C675   1.489       .  S
C667        C668   1.404       .  A
C667        C672   1.407       .  A
C668        H677   1.083       .  S
C668        C669   1.401       .  A
C669        H678   1.081       .  S
C669        C670   1.409       .  A
C670        C673   1.491       .  S
C670        C671   1.404       .  A
C671        H679   1.083       .  S
C671        C672   1.399       .  A
C672        H680   1.081       .  S
C673        H681   1.087       .  S
C673        C674   1.348       .  D
C674        H682   1.084       .  S
C675        H683   1.086       .  S
C675        C676   1.348       .  D
C676        H684   1.085       .  S
C685        C693   1.494       .  S
C685        C686   1.406       .  A
C685        C690   1.408       .  A
C686        H695   1.083       .  S
C686        C687   1.403       .  A
C687        H696   1.082       .  S
C687        C688   1.407       .  A
C688        C691   1.486       .  S
C688        C689   1.402       .  A
C689        H697   1.083       .  S
C689        C690   1.399       .  A
C690        H698   1.082       .  S
C691        H699   1.087       .  S
C691        C692   1.345       .  D
C692        H700   1.086       .  S
C693        H701   1.087       .  S
C693        C694   1.348       .  D
C694        H702   1.085       .  S
C703        C711   1.480       .  S
C703        C704   1.405       .  A
C703        C708   1.403       .  A
C704        H713   1.084       .  S
C704        C705   1.402       .  A
C705        H714   1.082       .  S
C705        C706   1.405       .  A
C706        C709   1.481       .  S
C706        C707   1.404       .  A
C707        H715   1.084       .  S
C707        C708   1.394       .  A
C708        H716   1.083       .  S
C709        H717   1.088       .  S
C709        C710   1.349       .  D
C710        H718   1.085       .  S
C711        H719   1.087       .  S
C711        C712   1.346       .  D
C712        H720   1.087       .  S
C721        C729   1.487       .  S
C721        C722   1.403       .  A
C721        C726   1.408       .  A
C722        H731   1.084       .  S
C722        C723   1.398       .  A
C723        H732   1.083       .  S
C723        C724   1.407       .  A
C724        C727   1.492       .  S
C724        C725   1.406       .  A
C725        H733   1.083   1_655  S
C725        C726   1.406       .  A
C726        H734   1.083   1_655  S
C727        H735   1.086       .  S
C727        C728   1.347       .  D
C728        H736   1.087       .  S
C729        H737   1.088       .  S
C729        C730   1.348       .  D
C730        H738   1.086   1_655  S
C739        C747   1.494       .  S
C739        C740   1.404       .  A
C739        C744   1.409       .  A
C740        H749   1.083       .  S
C740        C741   1.399       .  A
C741        H750   1.081       .  S
C741        C742   1.409       .  A
C742        C745   1.493       .  S
C742        C743   1.404       .  A
C743        H751   1.083       .  S
C743        C744   1.402       .  A
C744        H752   1.081       .  S
C745        H753   1.087       .  S
C745        C746   1.347       .  D
C746        H754   1.081       .  S
C747        H755   1.087       .  S
C747        C748   1.348       .  D
C748        H756   1.084       .  S
C757        C765   1.493       .  S
C757        C758   1.403       .  A
C757        C762   1.409       .  A
C758        H767   1.083       .  S
C758        C759   1.401       .  A
C759        H768   1.080       .  S
C759        C760   1.411       .  A
C760        C763   1.495       .  S
C760        C761   1.403       .  A
C761        H769   1.083       .  S
C761        C762   1.398       .  A
C762        H770   1.080       .  S
C763        H771   1.087       .  S
C763        C764   1.346       .  D
C764        H772   1.083       .  S
C765        H773   1.087       .  S
C765        C766   1.345       .  D
C766        H774   1.081       .  S
C775        C783   1.486       .  S
C775        C776   1.403       .  A
C775        C780   1.407       .  A
C776        H785   1.084       .  S
C776        C777   1.398       .  A
C777        H786   1.080       .  S
C777        C778   1.409   1_565  A
C778        C781   1.493       .  S
C778        C779   1.405       .  A
C779        H787   1.084       .  S
C779        C780   1.399   1_545  A
C780        H788   1.081   1_565  S
C781        H789   1.087       .  S
C781        C782   1.348       .  D
C782        H790   1.083       .  S
C783        H791   1.088       .  S
C783        C784   1.347       .  D
C784        H792   1.084       .  S
C793        C801   1.486       .  S
C793        C794   1.404       .  A
C793        C798   1.406       .  A
C794        H803   1.084       .  S
C794        C795   1.397       .  A
C795        H804   1.082       .  S
C795        C796   1.405       .  A
C796        C799   1.490       .  S
C796        C797   1.407       .  A
C797        H805   1.084       .  S
C797        C798   1.405       .  A
C798        H806   1.082       .  S
C799        H807   1.087       .  S
C799        C800   1.349       .  D
C800        H808   1.086       .  S
C801        H809   1.087       .  S
C801        C802   1.351       .  D
C802        H810   1.085       .  S
C811        C819   1.490       .  S
C811        C812   1.405       .  A
C811        C816   1.407       .  A
C812        H821   1.083   1_655  S
C812        C813   1.400       .  A
C813        H822   1.081   1_655  S
C813        C814   1.408       .  A
C814        C817   1.494       .  S
C814        C815   1.406       .  A
C815        H823   1.083       .  S
C815        C816   1.401       .  A
C816        H824   1.081       .  S
C817        H825   1.087       .  S
C817        C818   1.351       .  D
C818        H826   1.084       .  S
C819        H827   1.087   1_655  S
C819        C820   1.351       .  D
C820        H828   1.084       .  S
C829        C837   1.489   1_455  S
C829        C830   1.406   1_455  A
C829        C834   1.405       .  A
C830        H839   1.083       .  S
C830        C831   1.402   1_655  A
C831        H840   1.081   1_455  S
C831        C832   1.407       .  A
C832        C835   1.487       .  S
C832        C833   1.405       .  A
C833        H841   1.084       .  S
C833        C834   1.396       .  A
C834        H842   1.081       .  S
C835        H843   1.089       .  S
C835        C836   1.351       .  D
C836        H844   1.084       .  S
C837        H845   1.087       .  S
C837        C838   1.351       .  D
C838        H846   1.084   1_655  S
C847        C855   1.499       .  S
C847        C848   1.407       .  A
C847        C852   1.408   1_655  A
C848        H857   1.083       .  S
C848        C849   1.408   1_655  A
C849        H858   1.082       .  S
C849        C850   1.409       .  A
C850        C853   1.494       .  S
C850        C851   1.404       .  A
C851        H859   1.084       .  S
C851        C852   1.399       .  A
C852        H860   1.082       .  S
C853        H861   1.088       .  S
C853        C854   1.352       .  D
C854        H862   1.085       .  S
C855        H863   1.087       .  S
C855        C856   1.350       .  D
C856        H864   1.086   1_655  S
C865        C873   1.494       .  S
C865        C866   1.406       .  A
C865        C870   1.408       .  A
C866        H875   1.083       .  S
C866        C867   1.403       .  A
C867        H876   1.083       .  S
C867        C868   1.405       .  A
C868        C871   1.489       .  S
C868        C869   1.404       .  A
C869        H877   1.083       .  S
C869        C870   1.404       .  A
C870        H878   1.082       .  S
C871        H879   1.081       .  S
C871        C872   1.348       .  D
C872        H880   1.087       .  S
C873        H881   1.087       .  S
C873        C874   1.350       .  D
C874        H882   1.086       .  S
C883        C891   1.485       .  S
C883        C884   1.404       .  A
C883        C888   1.405       .  A
C884        H893   1.083       .  S
C884        C885   1.403       .  A
C885        H894   1.083       .  S
C885        C886   1.407       .  A
C886        C889   1.485       .  S
C886        C887   1.403       .  A
C887        H895   1.084       .  S
C887        C888   1.398       .  A
C888        H896   1.082       .  S
C889        H897   1.087       .  S
C889        C890   1.346       .  D
C890        H898   1.086       .  S
C891        H899   1.083       .  S
C891        C892   1.346       .  D
C892        H900   1.087       .  S
C901        C909   1.484       .  S
C901        C902   1.403       .  A
C901        C906   1.408       .  A
C902        H911   1.084       .  S
C902        C903   1.394       .  A
C903        H912   1.081       .  S
C903        C904   1.406   1_565  A
C904        C907   1.487       .  S
C904        C905   1.405       .  A
C905        H913   1.084       .  S
C905        C906   1.402   1_545  A
C906        H914   1.081   1_565  S
C907        H915   1.087       .  S
C907        C908   1.348       .  D
C908        H916   1.085   1_545  S
C909        H917   1.089       .  S
C909        C910   1.348       .  D
C910        H918   1.084       .  S
C919        C927   1.493       .  S
C919        C920   1.406       .  A
C919        C924   1.408       .  A
C920        H929   1.084       .  S
C920        C921   1.402       .  A
C921        H930   1.081       .  S
C921        C922   1.407       .  A
C922        C925   1.488       .  S
C922        C923   1.404       .  A
C923        H931   1.084       .  S
C923        C924   1.399       .  A
C924        H932   1.081       .  S
C925        H933   1.088       .  S
C925        C926   1.349       .  D
C926        H934   1.084       .  S
C927        H935   1.087       .  S
C927        C928   1.350       .  D
C928        H936   1.084       .  S
C937        C945   1.489       .  S
C937        C938   1.404       .  A
C937        C942   1.407       .  A
C938        H947   1.083   1_545  S
C938        C939   1.399       .  A
C939        H948   1.080   1_545  S
C939        C940   1.410       .  A
C940        C943   1.498       .  S
C940        C941   1.407       .  A
C941        H949   1.083       .  S
C941        C942   1.404       .  A
C942        H950   1.082       .  S
C943        H951   1.086       .  S
C943        C944   1.350       .  D
C944        H952   1.083       .  S
C945        H953   1.088       .  S
C945        C946   1.350       .  D
C946        H954   1.085       .  S
C955        C963   1.486       .  S
C955        C956   1.404       .  A
C955        C960   1.405       .  A
C956        H965   1.084       .  S
C956        C957   1.403       .  A
C957        H966   1.081       .  S
C957        C958   1.409       .  A
C958        C961   1.484       .  S
C958        C959   1.402       .  A
C959        H967   1.084       .  S
C959        C960   1.393       .  A
C960        H968   1.082       .  S
C961        H969   1.089       .  S
C961        C962   1.346       .  D
C962        H970   1.085       .  S
C963        H971   1.087       .  S
C963        C964   1.348       .  D
C964        H972   1.086       .  S
C973        C981   1.495       .  S
C973        C974   1.405   1_556  A
C973        C978   1.410       .  A
C974        H983   1.084       .  S
C974        C975   1.399       .  A
C975        H984   1.081       .  S
C975        C976   1.407   1_554  A
C976        C979   1.492       .  S
C976        C977   1.404       .  A
C977        H985   1.083   1_655  S
C977        C978   1.402       .  A
C978        H986   1.079   1_655  S
C979        H987   1.087       .  S
C979        C980   1.347       .  D
C980        H988   1.085   1_556  S
C981        H989   1.087   1_556  S
C981        C982   1.348       .  D
C982        H990   1.082   1_655  S
C991        C999   1.493       .  S
C991        C992   1.405   1_455  A
C991        C996   1.408   1_554  A
C992       H1001   1.083       .  S
C992        C993   1.402       .  A
C993       H1002   1.081       .  S
C993        C994   1.408   1_655  A
C994        C997   1.491   1_554  S
C994        C995   1.404   1_554  A
C995       H1003   1.083       .  S
C995        C996   1.399       .  A
C996       H1004   1.082       .  S
C997       H1005   1.086       .  S
C997        C998   1.347   1_456  D
C998       H1006   1.083       .  S
C999       H1007   1.087       .  S
C999       C1000   1.347       .  D
C1000      H1008   1.085   1_554  S
C1009      C1017   1.489       .  S
C1009      C1010   1.403       .  A
C1009      C1014   1.408       .  A
C1010      H1019   1.083       .  S
C1010      C1011   1.399       .  A
C1011      H1020   1.081       .  S
C1011      C1012   1.409       .  A
C1012      C1015   1.493       .  S
C1012      C1013   1.405       .  A
C1013      H1021   1.083       .  S
C1013      C1014   1.402       .  A
C1014      H1022   1.082       .  S
C1015      H1023   1.087       .  S
C1015      C1016   1.348   1_455  D
C1016      H1024   1.084       .  S
C1017      H1025   1.087       .  S
C1017      C1018   1.348       .  D
C1018      H1026   1.084       .  S
C1027      C1035   1.492       .  S
C1027      C1028   1.403       .  A
C1027      C1032   1.409       .  A
C1028      H1037   1.084       .  S
C1028      C1029   1.397       .  A
C1029      H1038   1.081       .  S
C1029      C1030   1.409       .  A
C1030      C1033   1.499       .  S
C1030      C1031   1.407       .  A
C1031      H1039   1.083       .  S
C1031      C1032   1.407       .  A
C1032      H1040   1.082       .  S
C1033      H1041   1.087       .  S
C1033      C1034   1.349       .  D
C1034      H1042   1.085       .  S
C1035      H1043   1.087       .  S
C1035      C1036   1.351       .  D
C1036      H1044   1.084       .  S
C1045      C1053   1.480       .  S
C1045      C1046   1.401       .  A
C1045      C1050   1.406       .  A
C1046      H1055   1.084   1_556  S
C1046      C1047   1.399       .  A
C1047      H1056   1.083   1_556  S
C1047      C1048   1.408       .  A
C1048      C1051   1.485       .  S
C1048      C1049   1.403       .  A
C1049      H1057   1.083       .  S
C1049      C1050   1.401       .  A
C1050      H1058   1.083       .  S
C1051      H1059   1.087       .  S
C1051      C1052   1.345   1_556  D
C1052      H1060   1.087       .  S
C1053      H1061   1.083       .  S
C1053      C1054   1.343       .  D
C1054      H1062   1.087   1_556  S
C1063      C1071   1.484       .  S
C1063      C1064   1.403       .  A
C1063      C1068   1.405       .  A
C1064      H1073   1.084       .  S
C1064      C1065   1.402       .  A
C1065      H1074   1.082       .  S
C1065      C1066   1.408       .  A
C1066      C1069   1.488       .  S
C1066      C1067   1.403       .  A
C1067      H1075   1.084       .  S
C1067      C1068   1.399       .  A
C1068      H1076   1.083       .  S
C1069      H1077   1.087       .  S
C1069      C1070   1.345       .  D
C1070      H1078   1.087   1_556  S
C1071      H1079   1.084       .  S
C1071      C1072   1.347       .  D
C1072      H1080   1.086   1_556  S
C1081      C1089   1.485       .  S
C1081      C1082   1.402       .  A
C1081      C1086   1.408       .  A
C1082      H1091   1.083       .  S
C1082      C1083   1.398       .  A
C1083      H1092   1.082       .  S
C1083      C1084   1.407       .  A
C1084      C1087   1.480       .  S
C1084      C1085   1.401       .  A
C1085      H1093   1.084       .  S
C1085      C1086   1.396       .  A
C1086      H1094   1.081       .  S
C1087      H1095   1.088       .  S
C1087      C1088   1.345       .  D
C1088      H1096   1.085       .  S
C1089      H1097   1.087       .  S
C1089      C1090   1.342       .  D
C1090      H1098   1.085       .  S
C1099      C1107   1.487       .  S
C1099      C1100   1.401       .  A
C1099      C1104   1.408       .  A
C1100      H1109   1.083       .  S
C1100      C1101   1.397       .  A
C1101      H1110   1.082       .  S
C1101      C1102   1.408       .  A
C1102      C1105   1.493       .  S
C1102      C1103   1.406       .  A
C1103      H1111   1.083       .  S
C1103      C1104   1.407       .  A
C1104      H1112   1.083       .  S
C1105      H1113   1.086       .  S
C1105      C1106   1.347       .  D
C1106      H1114   1.086       .  S
C1107      H1115   1.087       .  S
C1107      C1108   1.347       .  D
C1108      H1116   1.086       .  S
C1117      C1125   1.486   1_556  S
C1117      C1118   1.403   1_566  A
C1117      C1122   1.406       .  A
C1118      H1127   1.083       .  S
C1118      C1119   1.398       .  A
C1119      H1128   1.080       .  S
C1119      C1120   1.409   1_554  A
C1120      C1123   1.494       .  S
C1120      C1121   1.406   1_545  A
C1121      H1129   1.083       .  S
C1121      C1122   1.401       .  A
C1122      H1130   1.082       .  S
C1123      H1131   1.087       .  S
C1123      C1124   1.348   1_556  D
C1124      H1132   1.084       .  S
C1125      H1133   1.088       .  S
C1125      C1126   1.345   1_554  D
C1126      H1134   1.085   1_565  S
C1135      C1143   1.493       .  S
C1135      C1136   1.406   1_565  A
C1135      C1140   1.407   1_554  A
C1136      H1145   1.083       .  S
C1136      C1137   1.403       .  A
C1137      H1146   1.081       .  S
C1137      C1138   1.408   1_545  A
C1138      C1141   1.489   1_554  S
C1138      C1139   1.404   1_554  A
C1139      H1147   1.083       .  S
C1139      C1140   1.398       .  A
C1140      H1148   1.082       .  S
C1141      H1149   1.087       .  S
C1141      C1142   1.346   1_566  D
C1142      H1150   1.084       .  S
C1143      H1151   1.087       .  S
C1143      C1144   1.348   1_554  D
C1144      H1152   1.085       .  S
C1153      C1161   1.493       .  S
C1153      C1154   1.406       .  A
C1153      C1158   1.410       .  A
C1154      H1163   1.083       .  S
C1154      C1155   1.402       .  A
C1155      H1164   1.082       .  S
C1155      C1156   1.407       .  A
C1156      C1159   1.487       .  S
C1156      C1157   1.402       .  A
C1157      H1165   1.083       .  S
C1157      C1158   1.398       .  A
C1158      H1166   1.080       .  S
C1159      H1167   1.087       .  S
C1159      C1160   1.346       .  D
C1160      H1168   1.085       .  S
C1161      H1169   1.087       .  S
C1161      C1162   1.348   1_565  D
C1162      H1170   1.084       .  S
C1171      C1179   1.494       .  S
C1171      C1172   1.406       .  A
C1171      C1176   1.408       .  A
C1172      H1181   1.083       .  S
C1172      C1173   1.405       .  A
C1173      H1182   1.081       .  S
C1173      C1174   1.408       .  A
C1174      C1177   1.488       .  S
C1174      C1175   1.403       .  A
C1175      H1183   1.084       .  S
C1175      C1176   1.396       .  A
C1176      H1184   1.081       .  S
C1177      H1185   1.088       .  S
C1177      C1178   1.350       .  D
C1178      H1186   1.085       .  S
C1179      H1187   1.087       .  S
C1179      C1180   1.349       .  D
C1180      H1188   1.084       .  S
C1189      C1197   1.491       .  S
C1189      C1190   1.404       .  A
C1189      C1194   1.408       .  A
C1190      H1199   1.084       .  S
C1190      C1191   1.397       .  A
C1191      H1200   1.080       .  S
C1191      C1192   1.408       .  A
C1192      C1195   1.500       .  S
C1192      C1193   1.409       .  A
C1193      H1201   1.083       .  S
C1193      C1194   1.408       .  A
C1194      H1202   1.082       .  S
C1195      H1203   1.087       .  S
C1195      C1196   1.350       .  D
C1196      H1204   1.084       .  S
C1197      H1205   1.088       .  S
C1197      C1198   1.352       .  D
C1198      H1206   1.085       .  S
C1207      C1215   1.486       .  S
C1207      C1208   1.407       .  A
C1207      C1212   1.403       .  A
C1208      H1217   1.082       .  S
C1208      C1209   1.399       .  A
C1209      H1218   1.081       .  S
C1209      C1210   1.409       .  A
C1210      C1213   1.488       .  S
C1210      C1211   1.403       .  A
C1211      H1219   1.083       .  S
C1211      C1212   1.397       .  A
C1212      H1220   1.083       .  S
C1213      H1221   1.088       .  S
C1213      C1214   1.345       .  D
C1214      H1222   1.084       .  S
C1215      H1223   1.087       .  S
C1215      C1216   1.348       .  D
C1216      H1224   1.085       .  S
C1225      C1233   1.486       .  S
C1225      C1226   1.401       .  A
C1225      C1230   1.409       .  A
C1226      H1235   1.084       .  S
C1226      C1227   1.396       .  A
C1227      H1236   1.081       .  S
C1227      C1228   1.409       .  A
C1228      C1231   1.487       .  S
C1228      C1229   1.402       .  A
C1229      H1237   1.083       .  S
C1229      C1230   1.399       .  A
C1230      H1238   1.081       .  S
C1231      H1239   1.087       .  S
C1231      C1232   1.343       .  D
C1232      H1240   1.085       .  S
C1233      H1241   1.087       .  S
C1233      C1234   1.343       .  D
C1234      H1242   1.084       .  S
C1243      C1251   1.489       .  S
C1243      C1244   1.403       .  A
C1243      C1248   1.409       .  A
C1244      H1253   1.083       .  S
C1244      C1245   1.397       .  A
C1245      H1254   1.082       .  S
C1245      C1246   1.407       .  A
C1246      C1249   1.487       .  S
C1246      C1247   1.403       .  A
C1247      H1255   1.083       .  S
C1247      C1248   1.401       .  A
C1248      H1256   1.082       .  S
C1249      H1257   1.086       .  S
C1249      C1250   1.345       .  D
C1250      H1258   1.084       .  S
C1251      H1259   1.087       .  S
C1251      C1252   1.345       .  D
C1252      H1260   1.085       .  S
C1261      C1269   1.493       .  S
C1261      C1262   1.405       .  A
C1261      C1266   1.409       .  A
C1262      H1271   1.083   1_565  S
C1262      C1263   1.404   1_565  A
C1263      H1272   1.082       .  S
C1263      C1264   1.407   1_545  A
C1264      C1267   1.488       .  S
C1264      C1265   1.403       .  A
C1265      H1273   1.084       .  S
C1265      C1266   1.400       .  A
C1266      H1274   1.082       .  S
C1267      H1275   1.088       .  S
C1267      C1268   1.348       .  D
C1268      H1276   1.086   1_565  S
C1269      H1277   1.087       .  S
C1269      C1270   1.348       .  D
C1270      H1278   1.086       .  S
C1279      C1287   1.483       .  S
C1279      C1280   1.404       .  A
C1279      C1284   1.406       .  A
C1280      H1289   1.084       .  S
C1280      C1281   1.395       .  A
C1281      H1290   1.083       .  S
C1281      C1282   1.402       .  A
C1282      C1285   1.482       .  S
C1282      C1283   1.406       .  A
C1283      H1291   1.083       .  S
C1283      C1284   1.404       .  A
C1284      H1292   1.082       .  S
C1285      H1293   1.087       .  S
C1285      C1286   1.348       .  D
C1286      H1294   1.087       .  S
C1287      H1295   1.088       .  S
C1287      C1288   1.349       .  D
C1288      H1296   1.085       .  S
C1297      C1305   1.486       .  S
C1297      C1298   1.404       .  A
C1297      C1302   1.407       .  A
C1298      H1307   1.083       .  S
C1298      C1299   1.398       .  A
C1299      H1308   1.082       .  S
C1299      C1300   1.406       .  A
C1300      C1303   1.488       .  S
C1300      C1301   1.405       .  A
C1301      H1309   1.083       .  S
C1301      C1302   1.400       .  A
C1302      H1310   1.082       .  S
C1303      H1311   1.087       .  S
C1303      C1304   1.349       .  D
C1304      H1312   1.085       .  S
C1305      H1313   1.088       .  S
C1305      C1306   1.347       .  D
C1306      H1314   1.085       .  S
C1315      C1323   1.487       .  S
C1315      C1316   1.404       .  A
C1315      C1320   1.407       .  A
C1316      H1325   1.083       .  S
C1316      C1317   1.400       .  A
C1317      H1326   1.083       .  S
C1317      C1318   1.405       .  A
C1318      C1321   1.486       .  S
C1318      C1319   1.404       .  A
C1319      H1327   1.083       .  S
C1319      C1320   1.403       .  A
C1320      H1328   1.083       .  S
C1321      H1329   1.085       .  S
C1321      C1322   1.347       .  D
C1322      H1330   1.087       .  S
C1323      H1331   1.087       .  S
C1323      C1324   1.348       .  D
C1324      H1332   1.086       .  S
C1333      C1341   1.488       .  S
C1333      C1334   1.403       .  A
C1333      C1338   1.409       .  A
C1334      H1343   1.083       .  S
C1334      C1335   1.402       .  A
C1335      H1344   1.083       .  S
C1335      C1336   1.406       .  A
C1336      C1339   1.485       .  S
C1336      C1337   1.402       .  A
C1337      H1345   1.083       .  S
C1337      C1338   1.402       .  A
C1338      H1346   1.083       .  S
C1339      H1347   1.086       .  S
C1339      C1340   1.345       .  D
C1340      H1348   1.087       .  S
C1341      H1349   1.086       .  S
C1341      C1342   1.345       .  D
C1342      H1350   1.084       .  S
C1351      C1359   1.486       .  S
C1351      C1352   1.402       .  A
C1351      C1356   1.407   1_455  A
C1352      H1361   1.084       .  S
C1352      C1353   1.398       .  A
C1353      H1362   1.082       .  S
C1353      C1354   1.408       .  A
C1354      C1357   1.491       .  S
C1354      C1355   1.405   1_455  A
C1355      H1363   1.083       .  S
C1355      C1356   1.405       .  A
C1356      H1364   1.083       .  S
C1357      H1365   1.087       .  S
C1357      C1358   1.346       .  D
C1358      H1366   1.087       .  S
C1359      H1367   1.088       .  S
C1359      C1360   1.346   1_455  D
C1360      H1368   1.086       .  S
C1369      C1377   1.490       .  S
C1369      C1370   1.403       .  A
C1369      C1374   1.409       .  A
C1370      H1379   1.084   1_565  S
C1370      C1371   1.395       .  A
C1371      H1380   1.082       .  S
C1371      C1372   1.406       .  A
C1372      C1375   1.491       .  S
C1372      C1373   1.405       .  A
C1373      H1381   1.083       .  S
C1373      C1374   1.405       .  A
C1374      H1382   1.081       .  S
C1375      H1383   1.087       .  S
C1375      C1376   1.348       .  D
C1376      H1384   1.086       .  S
C1377      H1385   1.088       .  S
C1377      C1378   1.350       .  D
C1378      H1386   1.084       .  S
C1387      C1395   1.485       .  S
C1387      C1388   1.405       .  A
C1387      C1392   1.405       .  A
C1388      H1397   1.084       .  S
C1388      C1389   1.396       .  A
C1389      H1398   1.082       .  S
C1389      C1390   1.404       .  A
C1390      C1393   1.488   1_655  S
C1390      C1391   1.408       .  A
C1391      H1399   1.084   1_655  S
C1391      C1392   1.405       .  A
C1392      H1400   1.082       .  S
C1393      H1401   1.087       .  S
C1393      C1394   1.351   1_455  D
C1394      H1402   1.086       .  S
C1395      H1403   1.088       .  S
C1395      C1396   1.353       .  D
C1396      H1404   1.085       .  S
C1405      C1413   1.491       .  S
C1405      C1406   1.404       .  A
C1405      C1410   1.408       .  A
C1406      H1415   1.083       .  S
C1406      C1407   1.399       .  A
C1407      H1416   1.080       .  S
C1407      C1408   1.410       .  A
C1408      C1411   1.495       .  S
C1408      C1409   1.405       .  A
C1409      H1417   1.083       .  S
C1409      C1410   1.402       .  A
C1410      H1418   1.081       .  S
C1411      H1419   1.087       .  S
C1411      C1412   1.348       .  D
C1412      H1420   1.084   1_655  S
C1413      H1421   1.087       .  S
C1413      C1414   1.349       .  D
C1414      H1422   1.084       .  S
C1423      C1431   1.490   1_545  S
C1423      C1424   1.404       .  A
C1423      C1428   1.409       .  A
C1424      H1433   1.084   1_545  S
C1424      C1425   1.403       .  A
C1425      H1434   1.082       .  S
C1425      C1426   1.408       .  A
C1426      C1429   1.485       .  S
C1426      C1427   1.401       .  A
C1427      H1435   1.084       .  S
C1427      C1428   1.396       .  A
C1428      H1436   1.082       .  S
C1429      H1437   1.088       .  S
C1429      C1430   1.345       .  D
C1430      H1438   1.086       .  S
C1431      H1439   1.087       .  S
C1431      C1432   1.345       .  D
C1432      H1440   1.086       .  S
C1441      C1449   1.486       .  S
C1441      C1442   1.404       .  A
C1441      C1446   1.409   1_545  A
C1442      H1451   1.084       .  S
C1442      C1443   1.394       .  A
C1443      H1452   1.082       .  S
C1443      C1444   1.404   1_545  A
C1444      C1447   1.484       .  S
C1444      C1445   1.404       .  A
C1445      H1453   1.084       .  S
C1445      C1446   1.402       .  A
C1446      H1454   1.080       .  S
C1447      H1455   1.087       .  S
C1447      C1448   1.349       .  D
C1448      H1456   1.086   1_565  S
C1449      H1457   1.089       .  S
C1449      C1450   1.348       .  D
C1450      H1458   1.084       .  S
C1459      C1467   1.493       .  S
C1459      C1460   1.406       .  A
C1459      C1464   1.408       .  A
C1460      H1469   1.083       .  S
C1460      C1461   1.405       .  A
C1461      H1470   1.081       .  S
C1461      C1462   1.409       .  A
C1462      C1465   1.486       .  S
C1462      C1463   1.402       .  A
C1463      H1471   1.084       .  S
C1463      C1464   1.394       .  A
C1464      H1472   1.081       .  S
C1465      H1473   1.089       .  S
C1465      C1466   1.348       .  D
C1466      H1474   1.085       .  S
C1467      H1475   1.087       .  S
C1467      C1468   1.345       .  D
C1468      H1476   1.085       .  S
C1477      C1485   1.482       .  S
C1477      C1478   1.407       .  A
C1477      C1482   1.403       .  A
C1478      H1487   1.084       .  S
C1478      C1479   1.403       .  A
C1479      H1488   1.082       .  S
C1479      C1480   1.402       .  A
C1480      C1483   1.477       .  S
C1480      C1481   1.403       .  A
C1481      H1489   1.084       .  S
C1481      C1482   1.395       .  A
C1482      H1490   1.082       .  S
C1483      H1491   1.088       .  S
C1483      C1484   1.349       .  D
C1484      H1492   1.086       .  S
C1485      H1493   1.088       .  S
C1485      C1486   1.349       .  D
C1486      H1494   1.086       .  S
C1495      C1503   1.485       .  S
C1495      C1496   1.403       .  A
C1495      C1500   1.406       .  A
C1496      H1505   1.084   1_545  S
C1496      C1497   1.399   1_545  A
C1497      H1506   1.081       .  S
C1497      C1498   1.409       .  A
C1498      C1501   1.491       .  S
C1498      C1499   1.405   1_565  A
C1499      H1507   1.084       .  S
C1499      C1500   1.401       .  A
C1500      H1508   1.082       .  S
C1501      H1509   1.087       .  S
C1501      C1502   1.348       .  D
C1502      H1510   1.085       .  S
C1503      H1511   1.088       .  S
C1503      C1504   1.345       .  D
C1504      H1512   1.085       .  S
C1513      C1521   1.495       .  S
C1513      C1514   1.408       .  A
C1513      C1518   1.405       .  A
C1514      H1523   1.081       .  S
C1514      C1515   1.399       .  A
C1515      H1524   1.079       .  S
C1515      C1516   1.409       .  A
C1516      C1519   1.497       .  S
C1516      C1517   1.406       .  A
C1517      H1525   1.083       .  S
C1517      C1518   1.403       .  A
C1518      H1526   1.083       .  S
C1519      H1527   1.087       .  S
C1519      C1520   1.350       .  D
C1520      H1528   1.081       .  S
C1521      H1529   1.087       .  S
C1521      C1522   1.349       .  D
C1522      H1530   1.084       .  S
C1531      C1539   1.493       .  S
C1531      C1532   1.405       .  A
C1531      C1536   1.407       .  A
C1532      H1541   1.083       .  S
C1532      C1533   1.403       .  A
C1533      H1542   1.080       .  S
C1533      C1534   1.410       .  A
C1534      C1537   1.494       .  S
C1534      C1535   1.405       .  A
C1535      H1543   1.083       .  S
C1535      C1536   1.399       .  A
C1536      H1544   1.081       .  S
C1537      H1545   1.087       .  S
C1537      C1538   1.347       .  D
C1538      H1546   1.082       .  S
C1539      H1547   1.087       .  S
C1539      C1540   1.348       .  D
C1540      H1548   1.085       .  S
C1549      C1557   1.486       .  S
C1549      C1550   1.402       .  A
C1549      C1554   1.408   1_455  A
C1550      H1559   1.083       .  S
C1550      C1551   1.397       .  A
C1551      H1560   1.083       .  S
C1551      C1552   1.407       .  A
C1552      C1555   1.491       .  S
C1552      C1553   1.406   1_455  A
C1553      H1561   1.083       .  S
C1553      C1554   1.406       .  A
C1554      H1562   1.083       .  S
C1555      H1563   1.086       .  S
C1555      C1556   1.347       .  D
C1556      H1564   1.087       .  S
C1557      H1565   1.088       .  S
C1557      C1558   1.346   1_455  D
C1558      H1566   1.086       .  S
C1567      C1575   1.486       .  S
C1567      C1568   1.402       .  A
C1567      C1572   1.409       .  A
C1568      H1577   1.084       .  S
C1568      C1569   1.393       .  A
C1569      H1578   1.081       .  S
C1569      C1570   1.407       .  A
C1570      C1573   1.490       .  S
C1570      C1571   1.405       .  A
C1571      H1579   1.083       .  S
C1571      C1572   1.404       .  A
C1572      H1580   1.081       .  S
C1573      H1581   1.087       .  S
C1573      C1574   1.346       .  D
C1574      H1582   1.085       .  S
C1575      H1583   1.088       .  S
C1575      C1576   1.347       .  D
C1576      H1584   1.084       .  S
C1585      C1593   1.490       .  S
C1585      C1586   1.404       .  A
C1585      C1590   1.409       .  A
C1586      H1595   1.084       .  S
C1586      C1587   1.393       .  A
C1587      H1596   1.081       .  S
C1587      C1588   1.405       .  A
C1588      C1591   1.494       .  S
C1588      C1589   1.408       .  A
C1589      H1597   1.084       .  S
C1589      C1590   1.407       .  A
C1590      H1598   1.081       .  S
C1591      H1599   1.087       .  S
C1591      C1592   1.347   1_655  D
C1592      H1600   1.085       .  S
C1593      H1601   1.089       .  S
C1593      C1594   1.350       .  D
C1594      H1602   1.084       .  S
C1603      C1611   1.489       .  S
C1603      C1604   1.405       .  A
C1603      C1608   1.408       .  A
C1604      H1613   1.083       .  S
C1604      C1605   1.403       .  A
C1605      H1614   1.083       .  S
C1605      C1606   1.407       .  A
C1606      C1609   1.484       .  S
C1606      C1607   1.402       .  A
C1607      H1615   1.084       .  S
C1607      C1608   1.398       .  A
C1608      H1616   1.082       .  S
C1609      H1617   1.088       .  S
C1609      C1610   1.346       .  D
C1610      H1618   1.086       .  S
C1611      H1619   1.087       .  S
C1611      C1612   1.346       .  D
C1612      H1620   1.086       .  S
