geometry optimzed in LAMMPS
_audit_creation_date              2020-11-30 
_audit_creation_method            'lammps2cif' 
_symmetry_space_group_name_H-M    'P1' 
_symmetry_Int_Tables_number       1 
_symmetry_cell_setting            triclinic 
loop_ 
_symmetry_equiv_pos_as_xyz 
  x,y,z 
_cell_length_a                    45.27490964 
_cell_length_b                    45.208879359750874 
_cell_length_c                    45.155902498866276 
_cell_angle_alpha                 90.02372798405258 
_cell_angle_beta                  89.7758034362872 
_cell_angle_gamma                 89.98529101909573 
loop_ 
_atom_site_label 
_atom_site_type_symbol 
_atom_site_fract_x 
_atom_site_fract_y 
_atom_site_fract_z 
_atom_site_charge 
C1          C  0.49832543  0.39985491  0.06618040     0.42700
N2          N  0.48425821  0.43273953  0.03508908     0.01600
C3          C  0.57190474  0.52609015  0.95052370    -0.06300
H4          H  0.57859466  0.54789954  0.05816199     0.07100
C5          C  0.46516269  0.57374631  0.05757294    -0.06600
Co6        Co  0.53460109  0.45984103  0.00215736     0.74200
N7          N  0.55490329  0.51415426  0.03417655    -0.25800
Co8        Co  0.52909592  0.53661995  0.00304502     0.74100
C9          C  0.49126865  0.58884140  0.06892372     0.42800
N10         N  0.43222593  0.50492525  0.03805109     0.01200
N11         N  0.50468959  0.55761301  0.03591495     0.01300
N12         N  0.57501490  0.47615933  0.95061302    -0.46700
H13         H  0.54748011  0.40901040  0.05588216     0.07100
N14         N  0.55655711  0.48497028  0.03415000     0.01600
N15         N  0.50265026  0.55836890  0.97191561     0.01300
C16         C  0.48644809  0.58883671  0.93935911     0.42900
N17         N  0.43484650  0.47588392  0.03726436    -0.25300
C18         C  0.52217171  0.41571973  0.95044387    -0.06200
N19         N  0.47442435  0.41242645  0.05369904    -0.46400
N20         N  0.51128692  0.57847661  0.95230675    -0.46600
C21         C  0.49577835  0.40127162  0.93854518     0.42700
N22         N  0.55501264  0.48566333  0.96981218     0.01600
N23         N  0.43336382  0.47696088  0.97301538    -0.25300
N24         N  0.51334963  0.43422157  0.03422137    -0.25800
N25         N  0.43052449  0.50597817  0.97362284     0.01200
H26         H  0.41256901  0.44275059  0.94741258     0.07100
H27         H  0.43807392  0.57752988  0.95043990     0.07100
N28         N  0.55301195  0.51479632  0.97037905    -0.25800
N29         N  0.47563843  0.55513170  0.03699921    -0.25400
N30         N  0.48280076  0.43353322  0.97099686     0.01600
C31         C  0.58816108  0.49851150  0.06694134     0.43000
C32         C  0.41766063  0.46409360  0.05833560    -0.06700
N33         N  0.47361906  0.55569862  0.97312591    -0.25400
H34         H  0.44205629  0.57816597  0.06183384     0.07100
N35         N  0.57623073  0.47479920  0.05323695    -0.46700
H36         H  0.41404109  0.44068729  0.06168391     0.07100
C37         C  0.40107391  0.49179102  0.93939795     0.42800
C38         C  0.52433393  0.41423581  0.05322880    -0.06200
Co39       Co  0.45860226  0.45459550  0.00407332     0.73800
N40         N  0.41304958  0.51392945  0.05841349    -0.46400
C41         C  0.58654108  0.50038072  0.93747974     0.43100
N42         N  0.47232737  0.41341522  0.95251748    -0.46400
Co43       Co  0.45260422  0.53072561  0.00555225     0.73900
C44         C  0.46149939  0.57377864  0.95316351    -0.06700
C45         C  0.57406310  0.52474918  0.05422312    -0.06300
N46         N  0.51189473  0.43515429  0.97045818    -0.25800
N47         N  0.51489966  0.57793263  0.05430313    -0.46600
H48         H  0.57651997  0.54937540  0.94760643     0.07100
C49         C  0.41583806  0.46600409  0.95193837    -0.06700
Cl50       Cl  0.49376245  0.49545464  0.00372785    -0.49700
C51         C  0.40321752  0.48934004  0.07239160     0.42900
H52         H  0.54522987  0.41070181  0.94666796     0.07100
N53         N  0.41106526  0.51581940  0.95409494    -0.46400
N54         N  0.20485315  0.48493729  0.21591951    -0.03200
C55         C  0.23407238  0.47857807  0.21300320    -0.00600
C56         C  0.24714130  0.47604378  0.24051709    -0.23500
C57         C  0.22544593  0.48102670  0.26113283    -0.23700
C58         C  0.19986222  0.48632299  0.24555349    -0.00700
H59         H  0.27013907  0.47142848  0.24506843     0.13000
H60         H  0.22789954  0.48040233  0.28495611     0.13100
N61         N  0.78350006  0.49441626  0.21579866    -0.03200
C62         C  0.75396412  0.49118177  0.21151602    -0.00600
C63         C  0.73911586  0.49136154  0.23829009    -0.23500
C64         C  0.76002912  0.49503423  0.25987057    -0.23700
C65         C  0.78698390  0.49682959  0.24558654    -0.00700
H66         H  0.71550365  0.48957148  0.24166798     0.13000
H67         H  0.75605527  0.49634774  0.28348593     0.13100
N68         N  0.20693656  0.50125480  0.79269315    -0.03200
C69         C  0.20038428  0.50397187  0.76356026    -0.00600
C70         C  0.22525537  0.50033437  0.74619409    -0.23500
C71         C  0.24812145  0.49493408  0.76518277    -0.23700
C72         C  0.23636875  0.49563839  0.79347318    -0.00700
H73         H  0.22641244  0.50081246  0.72225120     0.13000
H74         H  0.27092050  0.49096264  0.75907225     0.13100
N75         N  0.78481578  0.51136498  0.79541865    -0.03200
C76         C  0.78696444  0.51618778  0.76584388    -0.00600
C77         C  0.75929750  0.51877406  0.75329462    -0.23500
C78         C  0.73927532  0.51498769  0.77576805    -0.23700
C79         C  0.75545384  0.51040440  0.80118964    -0.00700
H80         H  0.75426164  0.52205238  0.73011514     0.13000
H81         H  0.71545741  0.51519834  0.77380818     0.13100
N82         N  0.99620308  0.50200400  0.95919905    -0.36400
N83         N  0.04172772  0.49824091  0.00447997    -0.56900
N84         N  0.99568550  0.49846697  0.05046128    -0.36400
N85         N  0.95012641  0.49650512  0.00503047    -0.56900
C86         C  0.02036020  0.49640698  0.94224718     0.27200
C87         C  0.97209937  0.49639853  0.94247268     0.27200
C88         C  0.01997921  0.49290956  0.06691917     0.27200
C89         C  0.97177543  0.49154449  0.06720464     0.27200
C90         C  0.05891698  0.50416220  0.98063972     0.35800
C91         C  0.05858997  0.50323861  0.02860880     0.35800
C92         C  0.93294921  0.50227390  0.98126567     0.35800
C93         C  0.93268426  0.49961922  0.02927374     0.35800
C94         C  0.01145642  0.48732789  0.91434501    -0.21600
C95         C  0.98104794  0.48736732  0.91446760    -0.21600
C96         C  0.01138197  0.48253062  0.09455118    -0.21600
C97         C  0.98100305  0.48172842  0.09474491    -0.21600
C98         C  0.08685119  0.51275537  0.98966065    -0.22700
C99         C  0.08663910  0.51219191  0.02003779    -0.22700
C100        C  0.90441111  0.50877078  0.99049293    -0.22700
C101        C  0.90422076  0.50694536  0.02084370    -0.22700
C102        C  0.05018712  0.50056122  0.95082183    -0.18100
C103        C  0.94224872  0.50043539  0.95128789    -0.18100
C104        C  0.94183698  0.49518662  0.05890633    -0.18000
C105        C  0.04963880  0.49821048  0.05823959    -0.18000
H106        H  0.02541707  0.48134957  0.89577242     0.14900
H107        H  0.96709934  0.48136841  0.89600374     0.14900
H108        H  0.02551806  0.47628692  0.11278425     0.14900
H109        H  0.96726410  0.47477322  0.11313411     0.14900
H110        H  0.10545612  0.51882285  0.97582236     0.13100
H111        H  0.10507915  0.51768410  0.03419284     0.13100
H112        H  0.88561333  0.51426091  0.97682708     0.13100
H113        H  0.88530604  0.51076691  0.03507019     0.13100
H114        H  0.99605994  0.51078069  0.98041278     0.26400
H115        H  0.99547038  0.50802186  0.02961788     0.26400
C116        C  0.05762378  0.49934455  0.41168855     0.42700
N117        N  0.02523483  0.48583041  0.44369454     0.01600
C118        C  0.94430259  0.57503419  0.53870066    -0.06300
H119        H  0.05195195  0.57842337  0.55856264     0.07100
C120        C  0.04831861  0.46622092  0.58495167    -0.06600
Co121      Co  0.99414850  0.53740256  0.47110163     0.74200
N122        N  0.02752826  0.55586769  0.52458715    -0.25800
Co123      Co  0.99595197  0.53126424  0.54727133     0.74100
C124        C  0.06199061  0.49263666  0.59781756     0.42800
N125        N  0.02626325  0.43351981  0.51609183     0.01200
N126        N  0.02827096  0.50588058  0.56741124     0.01300
N127        N  0.94404731  0.57965451  0.48878154    -0.46700
H128        H  0.04904063  0.54874156  0.42151577     0.07100
N129        N  0.02690899  0.55840261  0.49549780     0.01600
N130        N  0.96408813  0.50638728  0.56928425     0.01300
C131        C  0.93047670  0.49324777  0.60003548     0.42900
N132        N  0.02537689  0.43558672  0.48694496    -0.25300
C133        C  0.94113994  0.52711698  0.42888063    -0.06200
N134        N  0.04393303  0.47563794  0.42359354    -0.46400
N135        N  0.94451044  0.51684593  0.58836615    -0.46600
C136        C  0.92815801  0.50154821  0.41396137     0.42700
N137        N  0.96298126  0.55909953  0.49747571     0.01600
N138        N  0.96149388  0.43710408  0.48832811    -0.25300
N139        N  0.02534820  0.51497451  0.44545630    -0.25800
N140        N  0.96182308  0.43435058  0.51741997     0.01200
H141        H  0.93518054  0.41768179  0.45402726     0.07100
H142        H  0.93904099  0.44372969  0.59108754     0.07100
N143        N  0.96383256  0.55639523  0.52654709    -0.25800
N144        N  0.02769912  0.47671898  0.56637774    -0.25400
N145        N  0.96120182  0.48665296  0.44459576     0.01600
C146        C  0.06002454  0.58930638  0.50929875     0.43000
C147        C  0.04539391  0.41697164  0.47539825    -0.06700
N148        N  0.96392178  0.47724625  0.56782286    -0.25400
H149        H  0.05198613  0.44313808  0.59002758     0.07100
N150        N  0.04568163  0.57852426  0.48545243    -0.46700
H151        H  0.04873004  0.41282918  0.45203630     0.07100
C152        C  0.92635871  0.40630049  0.50308955     0.42800
C153        C  0.04533469  0.52558273  0.42619946    -0.06200
Co154      Co  0.99334844  0.46098125  0.46556635     0.73800
N155        N  0.04597876  0.41401384  0.52540391    -0.46400
C156        C  0.93119077  0.59042846  0.51361711     0.43100
N157        N  0.94191581  0.47727021  0.42465985    -0.46400
Co158      Co  0.99494744  0.45492507  0.54226797     0.73900
C159        C  0.94340046  0.46682130  0.58661157    -0.06700
C160        C  0.04801237  0.57427711  0.53532491    -0.06300
N161        N  0.96148867  0.51574031  0.44707819    -0.25800
N162        N  0.04823007  0.51621005  0.58596612    -0.46600
H163        H  0.94169253  0.57906892  0.56217486     0.07100
C164        C  0.93978846  0.42046991  0.47732949    -0.06700
Cl165      Cl  0.99460958  0.49614650  0.50653827    -0.49700
C166        C  0.05908308  0.40274868  0.50097632     0.42900
H167        H  0.93788932  0.55044278  0.42472412     0.07100
N168        N  0.94127449  0.41582492  0.52720664    -0.46400
N169        N  0.50875059  0.78129185  0.21720272    -0.03200
C170        C  0.51482939  0.78535257  0.24631340    -0.00600
C171        C  0.51291603  0.75895279  0.26160258    -0.23500
C172        C  0.50525416  0.73779136  0.24136431    -0.23700
C173        C  0.50298432  0.75196434  0.21436924    -0.00700
H174        H  0.51604673  0.75563193  0.28512076     0.13000
H175        H  0.50194977  0.71449052  0.24576824     0.13100
N176        N  0.49120468  0.20224768  0.20994064    -0.03200
C177        C  0.48465520  0.23132793  0.20637539    -0.00600
C178        C  0.48121292  0.24496687  0.23356924    -0.23500
C179        C  0.48614989  0.22371664  0.25465799    -0.23700
C180        C  0.49219956  0.19781974  0.23961201    -0.00700
H181        H  0.47635107  0.26806528  0.23759663     0.13000
H182        H  0.48527522  0.22672994  0.27842362     0.13100
N183        N  0.48530335  0.20301686  0.79475894    -0.03200
C184        C  0.48001481  0.23237235  0.79837433    -0.00600
C185        C  0.47556525  0.24592880  0.77134790    -0.23500
C186        C  0.47835054  0.22429919  0.75020359    -0.23700
C187        C  0.48424410  0.19831511  0.76510166    -0.00700
H188        H  0.47139787  0.26917537  0.76744317     0.13000
H189        H  0.47622531  0.22713223  0.72650743     0.13100
N190        N  0.48299020  0.78153062  0.78951687    -0.03200
C191        C  0.48916465  0.78481007  0.76030015    -0.00600
C192        C  0.49091895  0.75758528  0.74648304    -0.23500
C193        C  0.48559056  0.73673152  0.76790103    -0.23700
C194        C  0.48098737  0.75200484  0.79399068    -0.00700
H195        H  0.49542710  0.75340362  0.72330038     0.13000
H196        H  0.48574061  0.71297030  0.76497064     0.13100
N197        N  0.49842104  0.03432074  0.00214803    -0.36400
N198        N  0.49248537  0.98890825  0.95692502    -0.56900
N199        N  0.48740332  0.94354017  0.00353885    -0.36400
N200        N  0.49904493  0.98886005  0.04829347    -0.56900
C201        C  0.50504346  0.05030794  0.97766622     0.27200
C202        C  0.50656949  0.05047690  0.02596075     0.27200
C203        C  0.48919885  0.92641829  0.97899842     0.27200
C204        C  0.49436121  0.92634951  0.02711141     0.27200
C205        C  0.49072056  0.01317647  0.93941908     0.35800
C206        C  0.48361019  0.96567323  0.94031006     0.35800
C207        C  0.49647219  0.01325342  0.06546408     0.35800
C208        C  0.49328477  0.96545013  0.06603356     0.35800
C209        C  0.51754681  0.07702748  0.98609979    -0.21600
C210        C  0.51840388  0.07717261  0.01656408    -0.21600
C211        C  0.49675543  0.89781406  0.98713098    -0.21600
C212        C  0.50017218  0.89781017  0.01740278    -0.21600
C213        C  0.48100702  0.00523874  0.91146170    -0.22700
C214        C  0.47648735  0.97521059  0.91202631    -0.22700
C215        C  0.48920427  0.00526870  0.09422177    -0.22700
C216        C  0.48733345  0.97498921  0.09460904    -0.22700
C217        C  0.49852912  0.04230022  0.94803377    -0.18100
C218        C  0.50201725  0.04254553  0.05595490    -0.18100
C219        C  0.49477622  0.93545858  0.05721290    -0.18000
C220        C  0.48385716  0.93566684  0.94947750    -0.18000
H221        H  0.52499759  0.09474652  0.97179513     0.14900
H222        H  0.52664433  0.09498536  0.03025831     0.14900
H223        H  0.49987079  0.87892683  0.97271566     0.14900
H224        H  0.50636019  0.87889829  0.03068764     0.14900
H225        H  0.47750989  0.01955119  0.89259407     0.13100
H226        H  0.46899093  0.96188270  0.89361138     0.13100
H227        H  0.48573312  0.01971779  0.11302997     0.13100
H228        H  0.48201211  0.96153174  0.11371625     0.13100
H229        H  0.48714142  0.01433048  0.00278851     0.26400
H230        H  0.48066850  0.96550985  0.00416357     0.26400
N231        N  0.20449857  0.78694738  0.50510293    -0.03200
C232        C  0.20169982  0.75719863  0.50845572    -0.00600
C233        C  0.22893146  0.74346762  0.50729512    -0.23500
C234        C  0.24938981  0.76530013  0.50282450    -0.23700
C235        C  0.23393572  0.79157458  0.50158760    -0.00700
H236        H  0.23333112  0.72000415  0.50909978     0.13000
H237        H  0.27305279  0.76242960  0.50086654     0.13100
N238        N  0.78174131  0.20844099  0.49082824    -0.03200
C239        C  0.75233717  0.20376406  0.48733135    -0.00600
C240        C  0.73717227  0.23021570  0.48585273    -0.23500
C241        C  0.75777904  0.25216222  0.48883267    -0.23700
C242        C  0.78476528  0.23831396  0.49192320    -0.00700
H243        H  0.71356093  0.23314930  0.48359098     0.13000
H244        H  0.75359653  0.27573640  0.48887888     0.13100
N245        N  0.20794760  0.20811746  0.49897833    -0.03200
C246        C  0.20468308  0.23796090  0.50048939    -0.00600
C247        C  0.23171668  0.25194598  0.49834323    -0.23500
C248        C  0.25252012  0.23011807  0.49547994    -0.23700
C249        C  0.23747556  0.20358141  0.49606998    -0.00700
H250        H  0.23580658  0.27552622  0.49890391     0.13000
H251        H  0.27617377  0.23317577  0.49376052     0.13100
N252        N  0.78588054  0.78660016  0.51604029    -0.03200
C253        C  0.75649923  0.79063345  0.51180194    -0.00600
C254        C  0.74149305  0.76410701  0.51321191    -0.23500
C255        C  0.76220279  0.74275037  0.51857364    -0.23700
C256        C  0.78911997  0.75702662  0.52008120    -0.00700
H257        H  0.71794787  0.76077022  0.51082724     0.13000
H258        H  0.75821035  0.71922658  0.52053156     0.13100
N259        N  0.94942437  0.99910692  0.50673880    -0.36400
N260        N  0.99439053  0.04543155  0.50713704    -0.56900
N261        N  0.04063291  0.99989936  0.50756234    -0.36400
N262        N  0.99556967  0.95398703  0.51294851    -0.56900
C263        C  0.93233895  0.02345469  0.51047372     0.27200
C264        C  0.93294370  0.97523330  0.51428567     0.27200
C265        C  0.05651102  0.02453803  0.51354022     0.27200
C266        C  0.05715194  0.97633602  0.51579495     0.27200
C267        C  0.97047863  0.06190591  0.49998690     0.35800
C268        C  0.01839500  0.06227647  0.50116191     0.35800
C269        C  0.97178271  0.93646929  0.50837352     0.35800
C270        C  0.01968820  0.93695539  0.50798365     0.35800
C271        C  0.90456112  0.01490083  0.52030206    -0.21600
C272        C  0.90495575  0.98453927  0.52274843    -0.21600
C273        C  0.08345872  0.01651661  0.52567011    -0.21600
C274        C  0.08387255  0.98610391  0.52705496    -0.21600
C275        C  0.97937221  0.08936139  0.48959855    -0.22700
C276        C  0.00968693  0.08959786  0.49035708    -0.22700
C277        C  0.98084197  0.90819547  0.50068560    -0.22700
C278        C  0.01114489  0.90853815  0.50028589    -0.22700
C279        C  0.94069677  0.05303707  0.50397791    -0.18100
C280        C  0.94197894  0.94521230  0.51228878    -0.18100
C281        C  0.04927976  0.94625508  0.51204720    -0.18000
C282        C  0.04799609  0.05394233  0.50685887    -0.18000
H283        H  0.88587912  0.02905244  0.52517731     0.14900
H284        H  0.88661277  0.97087683  0.52981251     0.14900
H285        H  0.10107360  0.03106458  0.53270241     0.14900
H286        H  0.10182963  0.97270893  0.53538326     0.14900
H287        H  0.96549482  0.10736785  0.48218550     0.13100
H288        H  0.02370313  0.10781951  0.48367866     0.13100
H289        H  0.96705395  0.88930453  0.49568454     0.13100
H290        H  0.02523412  0.88993123  0.49495183     0.13100
H291        H  0.97060967  0.99867415  0.49795146     0.26400
H292        H  0.02043464  0.99913798  0.49677424     0.26400
C293        C  0.50405257  0.92764848  0.41084719     0.42700
N294        N  0.48758221  0.96167833  0.43953898     0.01600
C295        C  0.57511782  0.04623837  0.53295767    -0.06300
H296        H  0.57563533  0.93684129  0.55717300     0.07100
C297        C  0.46430318  0.94234315  0.58092316    -0.06600
Co298      Co  0.53734386  0.99419970  0.46779300     0.74200
N299        N  0.55519554  0.96236784  0.52260882    -0.25800
Co300      Co  0.53033335  0.99450324  0.54403885     0.74100
C301        C  0.48995277  0.92967123  0.59584584     0.42800
N302        N  0.43341812  0.96213760  0.51099897     0.01200
N303        N  0.50463157  0.96238855  0.56479129     0.01300
N304        N  0.57757762  0.04528974  0.48293731    -0.46700
H305        H  0.55217193  0.93735710  0.42363839     0.07100
N306        N  0.55775229  0.96213324  0.49353232     0.01600
N307        N  0.50449566  0.02647897  0.56502866     0.01300
C308        C  0.48909085  0.05712678  0.59796636     0.42900
N309        N  0.43648634  0.96220184  0.48192567    -0.25300
C310        C  0.52757677  0.04544789  0.42266062    -0.06200
N311        N  0.47916509  0.94179214  0.41966752    -0.46400
N312        N  0.51354534  0.04463379  0.58614955    -0.46600
C313        C  0.50206082  0.05731759  0.40682178     0.42700
N314        N  0.55777679  0.02638184  0.49308185     0.01600
N315        N  0.43641628  0.02605395  0.48194585    -0.25300
N316        N  0.51645278  0.96196063  0.44322805    -0.25800
N317        N  0.43352638  0.02635336  0.51106175     0.01200
H318        H  0.41523917  0.05031663  0.44705119     0.07100
H319        H  0.44040859  0.04732389  0.58677997     0.07100
N320        N  0.55587714  0.02632142  0.52225378    -0.25800
N321        N  0.47559540  0.96240132  0.56221513    -0.25400
N322        N  0.48715889  0.02580912  0.43911391     0.01600
C323        C  0.58641911  0.92737775  0.50805789     0.43000
C324        C  0.41793927  0.94237888  0.47025805    -0.06700
N325        N  0.47543849  0.02593418  0.56256051    -0.25400
H326        H  0.44102819  0.93869010  0.58494550     0.07100
N327        N  0.57638643  0.94171208  0.48390429    -0.46700
H328        H  0.41419410  0.93926232  0.44683216     0.07100
C329        C  0.40355759  0.05989232  0.49597196     0.42800
C330        C  0.52871159  0.94100593  0.42640208    -0.06200
Co331      Co  0.46161273  0.99393203  0.46028084     0.73800
N332        N  0.41277083  0.94345590  0.52008682    -0.46400
C333        C  0.58940496  0.05883712  0.50665631     0.43100
N334        N  0.47788041  0.04390254  0.41809661    -0.46400
Co335      Co  0.45409179  0.99421070  0.53691361     0.73900
C336        C  0.46374763  0.04474689  0.58230814    -0.06700
C337        C  0.57240993  0.94110144  0.53384841    -0.06300
N338        N  0.51614905  0.02590490  0.44191845    -0.25800
N339        N  0.51410828  0.94327293  0.58479631    -0.46600
H340        H  0.57982517  0.04988800  0.55613260     0.07100
C341        C  0.41856551  0.04663606  0.47045183    -0.06700
Cl342      Cl  0.49582048  0.99432293  0.50227409    -0.49700
C343        C  0.40212823  0.92999422  0.49562331     0.42900
H344        H  0.55086910  0.04865170  0.41833849     0.07100
N345        N  0.41385419  0.04602509  0.52034874    -0.46400
C346        C  0.74083996  0.81872632  0.50797843    -0.01100
C347        C  0.72733064  0.82449251  0.48083866    -0.09100
C348        C  0.70359223  0.84405540  0.47912191    -0.17900
C349        C  0.69213746  0.85766533  0.50493710     0.04500
C350        C  0.70767037  0.85352099  0.53196669     0.18700
C351        C  0.73203138  0.83438056  0.53314592    -0.19300
C352        C  0.69769482  0.86698399  0.55803337    -0.20600
C353        C  0.67202063  0.88378145  0.55810583    -0.19100
C354        C  0.65555218  0.88724056  0.53218615     0.20100
C355        C  0.66535173  0.87431875  0.50516527     0.02200
C356        C  0.64743457  0.87793219  0.47981309    -0.13900
C357        C  0.62144194  0.89447270  0.48111916    -0.11600
C358        C  0.61234161  0.90767631  0.50764956     0.01700
C359        C  0.62926807  0.90360929  0.53319147    -0.23800
H360        H  0.73387220  0.81221951  0.46126337     0.09700
H361        H  0.69388476  0.84695290  0.45757571     0.13300
H362        H  0.74232006  0.82943972  0.55423297     0.12000
H363        H  0.70951528  0.86401780  0.57864697     0.13200
H364        H  0.66469981  0.89369768  0.57872516     0.12200
H365        H  0.65284623  0.86827860  0.45866411     0.09300
H366        H  0.60850937  0.89717104  0.46115964     0.12600
H367        H  0.62245221  0.91378859  0.55383458     0.14500
C368        C  0.80873111  0.80891737  0.51637388    -0.01100
C369        C  0.83013868  0.80910431  0.53869076    -0.09100
C370        C  0.85224669  0.83075481  0.53927278    -0.17900
C371        C  0.85369719  0.85307347  0.51731401     0.04500
C372        C  0.83197451  0.85258965  0.49461705     0.18700
C373        C  0.80985540  0.83074091  0.49440831    -0.19300
C374        C  0.83244941  0.87387695  0.47214210    -0.20600
C375        C  0.85400220  0.89575502  0.47163347    -0.19100
C376        C  0.87560398  0.89704082  0.49365887     0.20100
C377        C  0.87582444  0.87578621  0.51691229     0.02200
C378        C  0.89816730  0.87831768  0.53864522    -0.13900
C379        C  0.91931634  0.90087599  0.53718860    -0.11600
C380        C  0.91896591  0.92159622  0.51413498     0.01700
C381        C  0.89703709  0.91952800  0.49247221    -0.23800
H382        H  0.82951071  0.79257869  0.55602735     0.09700
H383        H  0.86784800  0.82944115  0.55718220     0.13300
H384        H  0.79365635  0.83041637  0.47681620     0.12000
H385        H  0.81600464  0.87359677  0.45476564     0.13200
H386        H  0.85372652  0.91186390  0.45386632     0.12200
H387        H  0.89987315  0.86323988  0.55703243     0.09300
H388        H  0.93613435  0.90216899  0.55414172     0.12600
H389        H  0.89682624  0.93546888  0.47453089     0.14500
C390        C  0.37745153  0.07965002  0.49557781    -0.01100
C391        C  0.36504479  0.08834140  0.46859950    -0.09100
C392        C  0.33958797  0.10566198  0.46781283    -0.17900
C393        C  0.32564056  0.11520660  0.49418424     0.04500
C394        C  0.33867836  0.10698100  0.52158752     0.18700
C395        C  0.36416608  0.08914856  0.52205064    -0.19300
C396        C  0.32641153  0.11692133  0.54831341    -0.20600
C397        C  0.30193012  0.13553763  0.54838834    -0.19100
C398        C  0.28876157  0.14420468  0.52176659     0.20100
C399        C  0.29988095  0.13347671  0.49429521     0.02200
C400        C  0.28528006  0.14234157  0.46808089    -0.13900
C401        C  0.26262367  0.16325589  0.46896615    -0.11600
C402        C  0.25316459  0.17512679  0.49591647     0.01700
C403        C  0.26550288  0.16478665  0.52231147    -0.23800
H404        H  0.37481614  0.08157648  0.44778260     0.09700
H405        H  0.33162560  0.11149677  0.44614610     0.13300
H406        H  0.37371931  0.08274093  0.54307770     0.12000
H407        H  0.33620843  0.11077770  0.56929265     0.13200
H408        H  0.29348650  0.14354798  0.56940683     0.12200
H409        H  0.29155883  0.13441488  0.44645998     0.09300
H410        H  0.25362737  0.17150406  0.44835817     0.12600
H411        H  0.25850512  0.17452493  0.54315061     0.14500
C412        C  0.07132067  0.07724553  0.50635420    -0.01100
C413        C  0.07021691  0.10088722  0.52632996    -0.09100
C414        C  0.09213397  0.12265828  0.52620756    -0.17900
C415        C  0.11604875  0.12144211  0.50593735     0.04500
C416        C  0.11678468  0.09755044  0.48541795     0.18700
C417        C  0.09467763  0.07569296  0.48596003    -0.19300
C418        C  0.13945721  0.09572903  0.46433029    -0.20600
C419        C  0.16133820  0.11728921  0.46293879    -0.19100
C420        C  0.16145853  0.14092709  0.48297796     0.20100
C421        C  0.13906114  0.14316170  0.50505357     0.02200
C422        C  0.14081909  0.16697607  0.52532770    -0.13900
C423        C  0.16345019  0.18791237  0.52333621    -0.11600
C424        C  0.18502160  0.18600667  0.50113801     0.01700
C425        C  0.18390515  0.16237882  0.48106908    -0.23800
H426        H  0.05226830  0.10243704  0.54219291     0.09700
H427        H  0.08958337  0.14027001  0.54208601     0.13300
H428        H  0.09544662  0.05746990  0.47034486     0.12000
H429        H  0.14012566  0.07762252  0.44859973     0.13200
H430        H  0.17840951  0.11536402  0.44615191     0.12200
H431        H  0.12522656  0.16989216  0.54316978     0.09300
H432        H  0.16427922  0.20561812  0.53945469     0.12600
H433        H  0.20031609  0.16094510  0.46363494     0.14500
C434        C  0.61587626  0.07775994  0.50458951    -0.01100
C435        C  0.63407551  0.08283548  0.52904742    -0.09100
C436        C  0.65976834  0.09982344  0.52614907    -0.17900
C437        C  0.66774382  0.11260453  0.49861471     0.04500
C438        C  0.64896215  0.10738841  0.47400339     0.18700
C439        C  0.62365589  0.08988133  0.47713643    -0.19300
C440        C  0.65507779  0.12023465  0.44648318    -0.20600
C441        C  0.67868714  0.13950314  0.44316062    -0.19100
C442        C  0.69714821  0.14576548  0.46709256     0.20100
C443        C  0.69281299  0.13145090  0.49483287     0.02200
C444        C  0.71314942  0.13758459  0.51777232    -0.13900
C445        C  0.73490280  0.15924716  0.51416705    -0.11600
C446        C  0.73696625  0.17514668  0.48772675     0.01700
C447        C  0.71893049  0.16753897  0.46390661    -0.23800
H448        H  0.62866373  0.07341713  0.55042655     0.09700
H449        H  0.67260546  0.10303421  0.54593809     0.13300
H450        H  0.60962042  0.08607455  0.45809604     0.12000
H451        H  0.64090045  0.11614006  0.42763061     0.13200
H452        H  0.68216289  0.15006019  0.42188230     0.12200
H453        H  0.71215793  0.12675165  0.53900824     0.09300
H454        H  0.74874729  0.16507791  0.53279625     0.12600
H455        H  0.72065881  0.17998818  0.44343481     0.14500
C456        C  0.80462930  0.18615571  0.49200872    -0.01100
C457        C  0.80467738  0.16283519  0.47157492    -0.09100
C458        C  0.82640096  0.14088228  0.47235548    -0.17900
C459        C  0.84912491  0.14152037  0.49376470     0.04500
C460        C  0.84919213  0.16543073  0.51428909     0.18700
C461        C  0.82707037  0.18734626  0.51326650    -0.19300
C462        C  0.87125183  0.16724114  0.53584688    -0.20600
C463        C  0.89316231  0.14572510  0.53767092    -0.19100
C464        C  0.89361181  0.12176806  0.51801282     0.20100
C465        C  0.87166939  0.11931820  0.49566754     0.02200
C466        C  0.87323390  0.09466114  0.47635630    -0.13900
C467        C  0.89551179  0.07341704  0.47921505    -0.11600
C468        C  0.91696211  0.07589738  0.50130899     0.01700
C469        C  0.91587777  0.10016630  0.52064223    -0.23800
H470        H  0.78786284  0.16175332  0.45462881     0.09700
H471        H  0.82479331  0.12375071  0.45585668     0.13300
H472        H  0.82699426  0.20503477  0.52942037     0.12000
H473        H  0.87152231  0.18542057  0.55149962     0.13200
H474        H  0.90984716  0.14779031  0.55469236     0.12200
H475        H  0.85756808  0.09111506  0.45882142     0.09300
H476        H  0.89607889  0.05488611  0.46400235     0.12600
H477        H  0.93244109  0.10213419  0.53781476     0.14500
C478        C  0.37456010  0.91253703  0.49485533    -0.01100
C479        C  0.36432992  0.90069732  0.46815233    -0.09100
C480        C  0.33796162  0.88481934  0.46711873    -0.17900
C481        C  0.32094431  0.88002948  0.49300723     0.04500
C482        C  0.33109714  0.89267287  0.51994424     0.18700
C483        C  0.35767380  0.90865313  0.52062985    -0.19300
C484        C  0.31498467  0.88880206  0.54617221    -0.20600
C485        C  0.28976333  0.87128591  0.54659175    -0.19100
C486        C  0.28012378  0.85717042  0.52080763     0.20100
C487        C  0.29501983  0.86206676  0.49341886     0.02200
C488        C  0.28433101  0.84730538  0.46800166    -0.13900
C489        C  0.26203974  0.82621134  0.47037583    -0.11600
C490        C  0.24907478  0.81999891  0.49776093     0.01700
C491        C  0.25703328  0.83649323  0.52263190    -0.23800
H492        H  0.37677661  0.90350990  0.44784642     0.09700
H493        H  0.33174810  0.87632489  0.44575041     0.13300
H494        H  0.36525392  0.91802312  0.54135971     0.12000
H495        H  0.32240181  0.89872199  0.56669393     0.13200
H496        H  0.27835144  0.86788095  0.56745770     0.12200
H497        H  0.29376816  0.85028371  0.44628342     0.09300
H498        H  0.25613013  0.81332357  0.45104378     0.12600
H499        H  0.24716222  0.83122622  0.54391326     0.14500
C500        C  0.18139440  0.80904713  0.50611418    -0.01100
C501        C  0.15905172  0.80737138  0.52757904    -0.09100
C502        C  0.13743691  0.82934570  0.52984396    -0.17900
C503        C  0.13761455  0.85418573  0.51078027     0.04500
C504        C  0.16026384  0.85575437  0.48891949     0.18700
C505        C  0.18160032  0.83321264  0.48662739    -0.19300
C506        C  0.16156192  0.87986912  0.46951424    -0.20600
C507        C  0.14062119  0.90235284  0.47106525    -0.19100
C508        C  0.11781577  0.90133234  0.49206437     0.20100
C509        C  0.11612792  0.87740854  0.51247677     0.02200
C510        C  0.09291199  0.87777114  0.53356891    -0.13900
C511        C  0.07187515  0.90040206  0.53377370    -0.11600
C512        C  0.07306043  0.92332967  0.51297322     0.01700
C513        C  0.09640835  0.92392314  0.49249269    -0.23800
H514        H  0.15867478  0.78926261  0.54323550     0.09700
H515        H  0.12106577  0.82635218  0.54694886     0.13300
H516        H  0.19837447  0.83444706  0.46952349     0.12000
H517        H  0.17886540  0.88130795  0.45292013     0.13200
H518        H  0.14216651  0.92059724  0.45557173     0.12200
H519        H  0.09025414  0.86080082  0.55009617     0.09300
H520        H  0.05422325  0.89979565  0.55002980     0.12600
H521        H  0.09750699  0.94174887  0.47645966     0.14500
C522        C  0.49241174  0.81283287  0.74411726    -0.01100
C523        C  0.46851145  0.83221051  0.74197184    -0.09100
C524        C  0.46828288  0.85421636  0.72026075    -0.17900
C525        C  0.49211775  0.85720843  0.70006853     0.04500
C526        C  0.51757235  0.83939877  0.70461582     0.18700
C527        C  0.51735123  0.81725588  0.72631096    -0.19300
C528        C  0.54248907  0.84274351  0.68650584    -0.20600
C529        C  0.54221364  0.86253795  0.66299048    -0.19100
C530        C  0.51667920  0.87867633  0.65647682     0.20100
C531        C  0.49124736  0.87631787  0.67493534     0.02200
C532        C  0.46556131  0.89193484  0.66650227    -0.13900
C533        C  0.46507790  0.90881708  0.64064756    -0.11600
C534        C  0.49024701  0.91117785  0.62272270     0.01700
C535        C  0.51611889  0.89645579  0.63102207    -0.23800
H536        H  0.44914162  0.82905265  0.75577724     0.09700
H537        H  0.44886440  0.86796654  0.71929418     0.13300
H538        H  0.53597823  0.80229413  0.72829651     0.12000
H539        H  0.56212006  0.82954322  0.69020347     0.13200
H540        H  0.56171068  0.86435933  0.64910304     0.12200
H541        H  0.44523954  0.89088467  0.67895473     0.09300
H542        H  0.44492057  0.92029434  0.63488987     0.12600
H543        H  0.53565856  0.89818823  0.61715212     0.14500
C544        C  0.48070739  0.80440636  0.81159908    -0.01100
C545        C  0.45655798  0.80554247  0.83103004    -0.09100
C546        C  0.45523486  0.82684945  0.85353414    -0.17900
C547        C  0.47846856  0.84744152  0.85750802     0.04500
C548        C  0.50284695  0.84599553  0.83753799     0.18700
C549        C  0.50352259  0.82490878  0.81476023    -0.19300
C550        C  0.52680428  0.86520537  0.84069638    -0.20600
C551        C  0.52733439  0.88581677  0.86343200    -0.19100
C552        C  0.50374060  0.88803176  0.88335570     0.20100
C553        C  0.47877298  0.86910367  0.88068996     0.02200
C554        C  0.45543739  0.87275958  0.90140668    -0.13900
C555        C  0.45705875  0.89421242  0.92377387    -0.11600
C556        C  0.48183696  0.91257180  0.92608506     0.01700
C557        C  0.50507279  0.90925886  0.90593068    -0.23800
H558        H  0.43868201  0.78980623  0.82875581     0.09700
H559        H  0.43604414  0.82636563  0.86772363     0.13300
H560        H  0.52238673  0.82369981  0.79994620     0.12000
H561        H  0.54545260  0.86409111  0.82561111     0.13200
H562        H  0.54636150  0.90022096  0.86539892     0.12200
H563        H  0.43566187  0.85950933  0.90078394     0.09300
H564        H  0.43886976  0.89662518  0.93924548     0.12600
H565        H  0.52426195  0.92348729  0.90785486     0.14500
C566        C  0.48774408  0.16993845  0.74958638    -0.01100
C567        C  0.46323932  0.15167018  0.74554525    -0.09100
C568        C  0.46354278  0.12978793  0.72366806    -0.17900
C569        C  0.48844407  0.12599731  0.70495223     0.04500
C570        C  0.51419323  0.14283716  0.71125652     0.18700
C571        C  0.51352058  0.16471846  0.73328560    -0.19300
C572        C  0.53989468  0.13898201  0.69439668    -0.20600
C573        C  0.54016326  0.11984794  0.67031420    -0.19100
C574        C  0.51452282  0.10471289  0.66208016     0.20100
C575        C  0.48834324  0.10727996  0.67943219     0.02200
C576        C  0.46279631  0.09232320  0.66950648    -0.13900
C577        C  0.46305787  0.07628770  0.64306440    -0.11600
C578        C  0.48883097  0.07412545  0.62594102     0.01700
C579        C  0.51464607  0.08785406  0.63594645    -0.23800
H580        H  0.44313855  0.15561820  0.75803579     0.09700
H581        H  0.44364284  0.11696045  0.72124222     0.13300
H582        H  0.53244467  0.17907227  0.73646908     0.12000
H583        H  0.55971521  0.15142794  0.69940817     0.13200
H584        H  0.56024497  0.11779614  0.65732768     0.12200
H585        H  0.44204121  0.09326770  0.68122357     0.09300
H586        H  0.44291779  0.06546945  0.63613384     0.12600
H587        H  0.53470471  0.08618512  0.62284108     0.14500
C588        C  0.49860384  0.06620955  0.92520868    -0.01100
C589        C  0.51955921  0.06664888  0.90232043    -0.09100
C590        C  0.51940292  0.08925731  0.88106588    -0.17900
C591        C  0.49805330  0.11219142  0.88206157     0.04500
C592        C  0.47701938  0.11157699  0.90555874     0.18700
C593        C  0.47753684  0.08882076  0.92673675    -0.19300
C594        C  0.45536624  0.13355691  0.90773154    -0.20600
C595        C  0.45376830  0.15603375  0.88683711    -0.19100
C596        C  0.47381248  0.15717578  0.86321969     0.20100
C597        C  0.49645143  0.13546728  0.86052852     0.02200
C598        C  0.51613120  0.13790436  0.83619340    -0.13900
C599        C  0.51285019  0.16037431  0.81511115    -0.11600
C600        C  0.49006783  0.18120195  0.81759414     0.01700
C601        C  0.47093282  0.17968553  0.84195757    -0.23800
H602        H  0.53612446  0.04940550  0.90093624     0.09700
H603        H  0.53614613  0.08811433  0.86407719     0.13300
H604        H  0.46133182  0.08850367  0.94449063     0.12000
H605        H  0.43934848  0.13322992  0.92563048     0.13200
H606        H  0.43653199  0.17254195  0.88904285     0.12200
H607        H  0.53409660  0.12264183  0.83270905     0.09300
H608        H  0.52819466  0.16148133  0.79671126     0.12600
H609        H  0.45309852  0.19558676  0.84380443     0.14500
C610        C  0.50214869  0.07440483  0.37890988    -0.01100
C611        C  0.47751708  0.07354140  0.36026510    -0.09100
C612        C  0.47708946  0.08948238  0.33381428    -0.17900
C613        C  0.50124600  0.10743340  0.32536602     0.04500
C614        C  0.52635355  0.10798281  0.34425141     0.18700
C615        C  0.52673200  0.09124785  0.37049514    -0.19300
C616        C  0.55056088  0.12596798  0.33733243    -0.20600
C617        C  0.54972152  0.14473502  0.31298508    -0.19100
C618        C  0.52486092  0.14559187  0.29469668     0.20100
C619        C  0.50077042  0.12605652  0.29978736     0.02200
C620        C  0.47668038  0.12717367  0.27985615    -0.13900
C621        C  0.47523754  0.14894166  0.25791688    -0.11600
C622        C  0.49782402  0.16976060  0.25504952     0.01700
C623        C  0.52312695  0.16719830  0.27249256    -0.23800
H624        H  0.45838117  0.06036929  0.36610312     0.09700
H625        H  0.45722218  0.08786303  0.32086605     0.13300
H626        H  0.54587060  0.09206391  0.38482404     0.12000
H627        H  0.56985572  0.12632209  0.35146225     0.13200
H628        H  0.56830836  0.15930755  0.30892877     0.12200
H629        H  0.45810770  0.11235417  0.28140664     0.09300
H630        H  0.45551225  0.15079082  0.24453183     0.12600
H631        H  0.54058115  0.18347879  0.27015201     0.14500
C632        C  0.50235560  0.06646204  0.07854384    -0.01100
C633        C  0.52512288  0.06837928  0.09930555    -0.09100
C634        C  0.52489163  0.09055000  0.12094361    -0.17900
C635        C  0.50163316  0.11148509  0.12245445     0.04500
C636        C  0.47851062  0.10909691  0.10131232     0.18700
C637        C  0.47919451  0.08687513  0.07960889    -0.19300
C638        C  0.45468487  0.12877713  0.10201182    -0.20600
C639        C  0.45327065  0.15100137  0.12319765    -0.19100
C640        C  0.47570530  0.15419720  0.14415924     0.20100
C641        C  0.50027302  0.13454660  0.14418172     0.02200
C642        C  0.52222548  0.13887108  0.16603286    -0.13900
C643        C  0.51948872  0.16134021  0.18720147    -0.11600
C644        C  0.49508983  0.18033626  0.18709415     0.01700
C645        C  0.47347876  0.17682664  0.16534978    -0.23800
H646        H  0.54309836  0.05256460  0.09877742     0.09700
H647        H  0.54309688  0.09062211  0.13623576     0.13300
H648        H  0.46146293  0.08515005  0.06361170     0.12000
H649        H  0.43694760  0.12693461  0.08606379     0.13200
H650        H  0.43445548  0.16583154  0.12317921     0.12200
H651        H  0.54164672  0.12517712  0.16745569     0.09300
H652        H  0.53649560  0.16393736  0.20379032     0.12600
H653        H  0.45442524  0.19135770  0.16551698     0.14500
C654        C  0.52012618  0.81357184  0.26154927    -0.01100
C655        C  0.54400967  0.81548568  0.28093550    -0.09100
C656        C  0.54423862  0.83650520  0.30343669    -0.17900
C657        C  0.51993045  0.85568969  0.30763386     0.04500
C658        C  0.49747435  0.85595034  0.28569140     0.18700
C659        C  0.49787129  0.83500322  0.26267910    -0.19300
C660        C  0.47376583  0.87568787  0.28807768    -0.20600
C661        C  0.47098048  0.89401118  0.31270039    -0.19100
C662        C  0.49147266  0.89252443  0.33579173     0.20100
C663        C  0.51642964  0.87353030  0.33344455     0.02200
C664        C  0.53599438  0.87204649  0.35771247    -0.13900
C665        C  0.53124426  0.88907507  0.38295966    -0.11600
C666        C  0.50689581  0.90800299  0.38501271     0.01700
C667        C  0.48694331  0.90955946  0.36146761    -0.23800
H668        H  0.56159474  0.79924062  0.27993987     0.09700
H669        H  0.56308237  0.83624479  0.31792686     0.13300
H670        H  0.47938925  0.83349449  0.24754350     0.12000
H671        H  0.45682549  0.87636564  0.27120062     0.13200
H672        H  0.45209748  0.90868354  0.31417482     0.12200
H673        H  0.55492994  0.85762695  0.35812740     0.09300
H674        H  0.54678936  0.88738824  0.40106178     0.12600
H675        H  0.46815284  0.92437121  0.36293487     0.14500
C676        C  0.50793803  0.80351959  0.19428214    -0.01100
C677        C  0.53069915  0.82429825  0.19154750    -0.09100
C678        C  0.52980119  0.84610740  0.16958411    -0.17900
C679        C  0.50587959  0.84781758  0.14952271     0.04500
C680        C  0.48297791  0.82645053  0.15234614     0.18700
C681        C  0.48419115  0.80473443  0.17456118    -0.19300
C682        C  0.45888633  0.82689125  0.13304372    -0.20600
C683        C  0.45694463  0.84810816  0.11087250    -0.19100
C684        C  0.47898650  0.86953248  0.10747137     0.20100
C685        C  0.50377356  0.86982485  0.12678633     0.02200
C686        C  0.52522706  0.89219870  0.12248472    -0.13900
C687        C  0.52225029  0.91311402  0.09988195    -0.11600
C688        C  0.49787021  0.91258303  0.08087872     0.01700
C689        C  0.47628594  0.89075665  0.08485657    -0.23800
H690        H  0.54941549  0.82347686  0.20637771     0.09700
H691        H  0.54818035  0.86122251  0.16883550     0.13300
H692        H  0.46636222  0.78889728  0.17683470     0.12000
H693        H  0.44138990  0.81065074  0.13508489     0.13200
H694        H  0.43799667  0.84777957  0.09628191     0.12200
H695        H  0.54451497  0.89418222  0.13623888     0.09300
H696        H  0.53909895  0.92992577  0.09719919     0.12600
H697        H  0.45725701  0.89046556  0.07034654     0.14500
C698        C  0.90559633  0.38106361  0.50275516    -0.01100
C699        C  0.89338569  0.37014547  0.52907833    -0.09100
C700        C  0.87533991  0.34503093  0.52885946    -0.17900
C701        C  0.86919481  0.32985517  0.50212265     0.04500
C702        C  0.88111774  0.34156923  0.47544468     0.18700
C703        C  0.89895736  0.36686386  0.47600693    -0.19300
C704        C  0.87531328  0.32795144  0.44825082    -0.20600
C705        C  0.85750711  0.30302157  0.44683182    -0.19100
C706        C  0.84529988  0.29093795  0.47260235     0.20100
C707        C  0.85133169  0.30382800  0.50072250     0.02200
C708        C  0.83863606  0.29043663  0.52605450    -0.13900
C709        C  0.81900009  0.26680990  0.52326584    -0.11600
C710        C  0.81211027  0.25533075  0.49540600     0.01700
C711        C  0.82593255  0.26683085  0.47025305    -0.23800
H712        H  0.89797801  0.38094242  0.54998074     0.09700
H713        H  0.86662994  0.33802108  0.54995319     0.13300
H714        H  0.90816266  0.37502395  0.45542051     0.12000
H715        H  0.88438712  0.33682761  0.42785935     0.13200
H716        H  0.85300126  0.29329989  0.42537318     0.12200
H717        H  0.84255669  0.29837676  0.54818839     0.09300
H718        H  0.80781294  0.25852558  0.54283159     0.12600
H719        H  0.81988917  0.25837026  0.44862029     0.14500
C720        C  0.91253735  0.61715727  0.51493496    -0.01100
C721        C  0.91081702  0.63624823  0.49062313    -0.09100
C722        C  0.89398438  0.66209547  0.49212566    -0.17900
C723        C  0.87790723  0.66941077  0.51803895     0.04500
C724        C  0.87933870  0.64957655  0.54243723     0.18700
C725        C  0.89688829  0.62406047  0.54083024    -0.19300
C726        C  0.86269736  0.65491422  0.56806197    -0.20600
C727        C  0.84362839  0.67892628  0.56954471    -0.19100
C728        C  0.84146010  0.69864333  0.54579515     0.20100
C729        C  0.85944951  0.69493555  0.52017995     0.02200
C730        C  0.85743923  0.71649176  0.49752226    -0.13900
C731        C  0.83634341  0.73900428  0.49901466    -0.11600
C732        C  0.81692234  0.74062267  0.52303812     0.01700
C733        C  0.82029856  0.72121985  0.54686274    -0.23800
H734        H  0.92277628  0.63133909  0.47038753     0.09700
H735        H  0.89348804  0.67554337  0.47243873     0.13300
H736        H  0.89780081  0.60919459  0.55963121     0.12000
H737        H  0.86373725  0.63989162  0.58673347     0.13200
H738        H  0.83017331  0.68186160  0.58923691     0.12200
H739        H  0.87124020  0.71603054  0.47803150     0.09300
H740        H  0.83378577  0.75386735  0.48038016     0.12600
H741        H  0.80510057  0.72260505  0.56545176     0.14500
C742        C  0.07847782  0.37647090  0.50112177    -0.01100
C743        C  0.07976347  0.35762367  0.47654684    -0.09100
C744        C  0.09717065  0.33211462  0.47700805    -0.17900
C745        C  0.11438094  0.32490069  0.50205453     0.04500
C746        C  0.11332443  0.34443937  0.52676857     0.18700
C747        C  0.09511275  0.36960265  0.52626420    -0.19300
C748        C  0.13088806  0.33909026  0.55162171    -0.20600
C749        C  0.15036179  0.31534913  0.55205770    -0.19100
C750        C  0.15221352  0.29597711  0.52795223     0.20100
C751        C  0.13349237  0.29973467  0.50303760     0.02200
C752        C  0.13546707  0.27861087  0.47989220    -0.13900
C753        C  0.15704202  0.25643770  0.48031560    -0.11600
C754        C  0.17694932  0.25466825  0.50378364     0.01700
C755        C  0.17374187  0.27369846  0.52799483    -0.23800
H756        H  0.06688882  0.36230976  0.45695164     0.09700
H757        H  0.09711072  0.31879308  0.45721808     0.13300
H758        H  0.09430726  0.38422338  0.54530426     0.12000
H759        H  0.13016881  0.35385565  0.57052952     0.13200
H760        H  0.16440972  0.31237859  0.57121203     0.12200
H761        H  0.12124842  0.27917164  0.46081917     0.09300
H762        H  0.15938508  0.24184671  0.46141174     0.12600
H763        H  0.18926241  0.27218528  0.54617958     0.14500
C764        C  0.17420201  0.74015357  0.51137127    -0.01100
C765        C  0.15540060  0.73704964  0.48712398    -0.09100
C766        C  0.13448067  0.71428390  0.48648540    -0.17900
C767        C  0.13205348  0.69392692  0.51023104     0.04500
C768        C  0.14968374  0.69895832  0.53573989     0.18700
C769        C  0.17058166  0.72178027  0.53597035    -0.19300
C770        C  0.14742353  0.68033880  0.56035550    -0.20600
C771        C  0.12862424  0.65612235  0.55993005    -0.19100
C772        C  0.11215553  0.64957345  0.53463053     0.20100
C773        C  0.11355221  0.66832485  0.50936325     0.02200
C774        C  0.09726100  0.65994035  0.48403584    -0.13900
C775        C  0.08035561  0.63407089  0.48392233    -0.11600
C776        C  0.07883149  0.61598597  0.50905745     0.01700
C777        C  0.09471137  0.62396349  0.53433772    -0.23800
H778        H  0.15821930  0.75103049  0.46783654     0.09700
H779        H  0.12117290  0.71265145  0.46681838     0.13300
H780        H  0.18535813  0.72423048  0.55467254     0.12000
H781        H  0.16063778  0.68427620  0.57992980     0.13200
H782        H  0.12756178  0.64195213  0.57926372     0.12200
H783        H  0.09751653  0.67263208  0.46384185     0.09300
H784        H  0.06818807  0.62836486  0.46412011     0.12600
H785        H  0.09393475  0.60994814  0.55378782     0.14500
C786        C  0.81405445  0.51556946  0.74785092    -0.01100
C787        C  0.83162412  0.49015443  0.74729919    -0.09100
C788        C  0.85199987  0.48571509  0.72438411    -0.17900
C789        C  0.85521094  0.50678717  0.70140207     0.04500
C790        C  0.83893148  0.53360992  0.70371016     0.18700
C791        C  0.81848127  0.53760596  0.72665827    -0.19300
C792        C  0.84225267  0.55586238  0.68248457    -0.20600
C793        C  0.86123296  0.55197751  0.65864191    -0.19100
C794        C  0.87662853  0.52540715  0.65502220     0.20100
C795        C  0.87357099  0.50218093  0.67604122     0.02200
C796        C  0.88838338  0.47519021  0.67024892    -0.13900
C797        C  0.90613273  0.47184658  0.64505272    -0.11600
C798        C  0.90990330  0.49534862  0.62523662     0.01700
C799        C  0.89497033  0.52193319  0.63027283    -0.23800
H800        H  0.82819650  0.47280554  0.76349860     0.09700
H801        H  0.86441214  0.46537387  0.72487267     0.13300
H802        H  0.80476669  0.55728730  0.72721286     0.12000
H803        H  0.82999097  0.57638613  0.68427696     0.13200
H804        H  0.86343762  0.56967174  0.64259007     0.12200
H805        H  0.88644283  0.45623264  0.68459298     0.09300
H806        H  0.91749283  0.45105901  0.64150449     0.12600
H807        H  0.89754824  0.54003966  0.61471277     0.14500
C808        C  0.80867900  0.50911334  0.81637533    -0.01100
C809        C  0.83086596  0.53064101  0.81660375    -0.09100
C810        C  0.85316697  0.53013188  0.83787871    -0.17900
C811        C  0.85406231  0.50778657  0.85978682     0.04500
C812        C  0.83173497  0.48562922  0.85910834     0.18700
C813        C  0.80934907  0.48652237  0.83757556    -0.19300
C814        C  0.83178068  0.46279505  0.88002467    -0.20600
C815        C  0.85349423  0.46143584  0.90168317    -0.19100
C816        C  0.87564155  0.48296930  0.90311801     0.20100
C817        C  0.87623048  0.50658023  0.88229215     0.02200
C818        C  0.89893172  0.52794689  0.88503263    -0.13900
C819        C  0.92011602  0.52580271  0.90735806    -0.11600
C820        C  0.91946040  0.50241371  0.92762734     0.01700
C821        C  0.89722004  0.48102360  0.92534486    -0.23800
H822        H  0.83050276  0.54842324  0.80054985     0.09700
H823        H  0.86926804  0.54762547  0.83663971     0.13300
H824        H  0.79242941  0.46958887  0.83722931     0.12000
H825        H  0.81487285  0.44583363  0.87963636     0.13200
H826        H  0.85289522  0.44343197  0.91751709     0.12200
H827        H  0.90087951  0.54664287  0.87037886     0.09300
H828        H  0.93713983  0.54256757  0.90890469     0.12600
H829        H  0.89675923  0.46285808  0.94101946     0.14500
C830        C  0.08084014  0.49508620  0.62425676    -0.01100
C831        C  0.09420635  0.52223367  0.63066062    -0.09100
C832        C  0.10989857  0.52630354  0.65679420    -0.17900
C833        C  0.11270937  0.50316170  0.67761139     0.04500
C834        C  0.09946187  0.47544363  0.67082473     0.18700
C835        C  0.08370790  0.47165392  0.64431478    -0.19300
C836        C  0.10233210  0.45160074  0.69037291    -0.20600
C837        C  0.11943896  0.45419878  0.71575378    -0.19100
C838        C  0.13371824  0.48082724  0.72237130     0.20100
C839        C  0.12945497  0.50609769  0.70414146     0.02200
C840        C  0.14352929  0.53276985  0.71244500    -0.13900
C841        C  0.16446132  0.53303039  0.73497937    -0.11600
C842        C  0.17096890  0.50717013  0.75049551     0.01700
C843        C  0.15413975  0.48173103  0.74566409    -0.23800
H844        H  0.09234670  0.54061835  0.61538859     0.09700
H845        H  0.11980853  0.54773956  0.65984214     0.13300
H846        H  0.07326866  0.45061396  0.63960367     0.12000
H847        H  0.09206220  0.43050693  0.68551177     0.13200
H848        H  0.12230242  0.43496994  0.72978110     0.12200
H849        H  0.14014890  0.55333818  0.70091001     0.09300
H850        H  0.17732100  0.55288935  0.73871148     0.12600
H851        H  0.15939312  0.46169105  0.75776126     0.14500
C852        C  0.18641897  0.50333394  0.81714031    -0.01100
C853        C  0.16632834  0.52680570  0.81846069    -0.09100
C854        C  0.14452442  0.52790780  0.84038163    -0.17900
C855        C  0.14192086  0.50522225  0.86180475     0.04500
C856        C  0.16313959  0.48198055  0.86108515     0.18700
C857        C  0.18515185  0.48129729  0.83892974    -0.19300
C858        C  0.16186320  0.45925699  0.88210807    -0.20600
C859        C  0.13971388  0.45882583  0.90358644    -0.19100
C860        C  0.11811335  0.48099520  0.90450511     0.20100
C861        C  0.11889039  0.50456999  0.88365004     0.02200
C862        C  0.09628174  0.52617919  0.88531735    -0.13900
C863        C  0.07402530  0.52448520  0.90679080    -0.11600
C864        C  0.07351080  0.50138566  0.92736118     0.01700
C865        C  0.09561689  0.47967184  0.92610507    -0.23800
H866        H  0.16739912  0.54433714  0.80216564     0.09700
H867        H  0.12989458  0.54668119  0.83975270     0.13300
H868        H  0.20066009  0.46305338  0.83795433     0.12000
H869        H  0.17800137  0.44154538  0.88180703     0.13200
H870        H  0.13930604  0.44082975  0.91943355     0.12200
H871        H  0.09505911  0.54461579  0.87027852     0.09300
H872        H  0.05717306  0.54148970  0.90754072     0.12600
H873        H  0.09522195  0.46173009  0.94203547     0.14500
C874        C  0.81479169  0.50088337  0.26203883    -0.01100
C875        C  0.81924638  0.52756515  0.27698904    -0.09100
C876        C  0.83962000  0.52955408  0.30001207    -0.17900
C877        C  0.85573355  0.50444673  0.30936467     0.04500
C878        C  0.85270567  0.47794068  0.29261825     0.18700
C879        C  0.83239863  0.47643262  0.26906957    -0.19300
C880        C  0.86876030  0.45269123  0.30052109    -0.20600
C881        C  0.88691718  0.45282827  0.32534719    -0.19100
C882        C  0.88922092  0.47810400  0.34314090     0.20100
C883        C  0.87385447  0.50438025  0.33527718     0.02200
C884        C  0.87648642  0.52911547  0.35429219    -0.13900
C885        C  0.89373351  0.52785894  0.37982465    -0.11600
C886        C  0.90896052  0.50202797  0.38743228     0.01700
C887        C  0.90653277  0.47715922  0.36898701    -0.23800
H888        H  0.80558667  0.54657819  0.27193498     0.09700
H889        H  0.84136468  0.55075248  0.31075351     0.13300
H890        H  0.82861770  0.45561340  0.25776258     0.12000
H891        H  0.86679724  0.43248747  0.28775279     0.13200
H892        H  0.89872240  0.43277926  0.33105717     0.12200
H893        H  0.86524297  0.54971260  0.35027291     0.09300
H894        H  0.89498254  0.54730127  0.39376317     0.12600
H895        H  0.91829214  0.45705327  0.37463103     0.14500
C896        C  0.80638331  0.49531535  0.19354156    -0.01100
C897        C  0.82611863  0.51906852  0.19238926    -0.09100
C898        C  0.84868448  0.51993686  0.17115694    -0.17900
C899        C  0.85245879  0.49667337  0.15045163     0.04500
C900        C  0.83252692  0.47237760  0.15206625     0.18700
C901        C  0.80964049  0.47206863  0.17328712    -0.19300
C902        C  0.83559609  0.44849834  0.13254292    -0.20600
C903        C  0.85775613  0.44834999  0.11108732    -0.19100
C904        C  0.87738331  0.47214024  0.10846464     0.20100
C905        C  0.87516575  0.49661212  0.12821646     0.02200
C906        C  0.89567800  0.51999561  0.12466564    -0.13900
C907        C  0.91717953  0.51919651  0.10236684    -0.11600
C908        C  0.91899248  0.49525471  0.08282575     0.01700
C909        C  0.89913475  0.47169622  0.08604804    -0.23800
H910        H  0.82383318  0.53720940  0.20789541     0.09700
H911        H  0.86284434  0.53907085  0.17160617     0.13300
H912        H  0.79455706  0.45348271  0.17446168     0.12000
H913        H  0.82065750  0.42980674  0.13380614     0.13200
H914        H  0.85940762  0.42955626  0.09626282     0.12200
H915        H  0.89560632  0.53930426  0.13864424     0.09300
H916        H  0.93242260  0.53754108  0.10016396     0.12600
H917        H  0.90063712  0.45306394  0.07098471     0.14500
C918        C  0.07602659  0.49790589  0.38463878    -0.01100
C919        C  0.08096515  0.47056688  0.37090714    -0.09100
C920        C  0.09748044  0.46860413  0.34488397    -0.17900
C921        C  0.11001654  0.49408365  0.33180798     0.04500
C922        C  0.10535337  0.52176909  0.34606682     0.18700
C923        C  0.08814512  0.52349128  0.37199045    -0.19300
C924        C  0.11857969  0.54742218  0.33482324    -0.20600
C925        C  0.13770151  0.54590185  0.31068745    -0.19100
C926        C  0.14323391  0.51885750  0.29662486     0.20100
C927        C  0.12829222  0.49283084  0.30601989     0.02200
C928        C  0.13321579  0.46646155  0.28982531    -0.13900
C929        C  0.15460246  0.46528730  0.26753028    -0.11600
C930        C  0.17131766  0.49027979  0.26058807     0.01700
C931        C  0.16484160  0.51726996  0.27429504    -0.23800
H932        H  0.07194412  0.45043873  0.38028730     0.09700
H933        H  0.10066930  0.44671183  0.33599424     0.13300
H934        H  0.08466781  0.54473915  0.38254350     0.12000
H935        H  0.11500030  0.56862906  0.34545347     0.13200
H936        H  0.14865652  0.56591441  0.30331145     0.12200
H937        H  0.12158232  0.44618866  0.29447623     0.09300
H938        H  0.15955319  0.44426240  0.25709848     0.12600
H939        H  0.17802426  0.53658071  0.26891924     0.14500
C940        C  0.07280286  0.49760293  0.08148983    -0.01100
C941        C  0.07339718  0.51931664  0.10352788    -0.09100
C942        C  0.09491504  0.51870287  0.12562151    -0.17900
C943        C  0.11661075  0.49612943  0.12631590     0.04500
C944        C  0.11590932  0.47427578  0.10363432     0.18700
C945        C  0.09413237  0.47520176  0.08158327    -0.19300
C946        C  0.13687137  0.45153716  0.10313264    -0.20600
C947        C  0.15852840  0.44984093  0.12479787    -0.19100
C948        C  0.15975593  0.47080763  0.14756345     0.20100
C949        C  0.13886280  0.49431489  0.14868004     0.02200
C950        C  0.14112137  0.51481574  0.17224905    -0.13900
C951        C  0.16298156  0.51189616  0.19380465    -0.11600
C952        C  0.18326486  0.48854392  0.19275944     0.01700
C953        C  0.18163286  0.46819419  0.16943569    -0.23800
H954        H  0.05706176  0.53683502  0.10360583     0.09700
H955        H  0.09392593  0.53616662  0.14182519     0.13300
H956        H  0.09359661  0.45838276  0.06445516     0.12000
H957        H  0.13647036  0.43486788  0.08587855     0.13200
H958        H  0.17437869  0.43189360  0.12380896     0.12200
H959        H  0.12631025  0.53330792  0.17472781     0.09300
H960        H  0.16416566  0.52813538  0.21136025     0.12600
H961        H  0.19707255  0.44988244  0.16873049     0.14500
C962        C  0.49674883  0.37263435  0.08421266    -0.01100
C963        C  0.52134107  0.35421636  0.08778685    -0.09100
C964        C  0.51912557  0.32796012  0.10406110    -0.17900
C965        C  0.49218202  0.31958379  0.11770279     0.04500
C966        C  0.46743585  0.33861717  0.11413903     0.18700
C967        C  0.46982506  0.36447537  0.09718272    -0.19300
C968        C  0.44058473  0.33219849  0.12815137    -0.20600
C969        C  0.43812862  0.30801889  0.14693065    -0.19100
C970        C  0.46219954  0.28917742  0.15141722     0.20100
C971        C  0.48918128  0.29383752  0.13586894     0.02200
C972        C  0.51218310  0.27303133  0.14005698    -0.13900
C973        C  0.50947211  0.25041654  0.16105285    -0.11600
C974        C  0.48389265  0.24796048  0.17830801     0.01700
C975        C  0.45992933  0.26657859  0.17256178    -0.23800
H976        H  0.54233438  0.35990991  0.07775734     0.09700
H977        H  0.53901071  0.31502726  0.10613386     0.13300
H978        H  0.45069374  0.37867545  0.09457583     0.12000
H979        H  0.42162806  0.34657434  0.12538856     0.13200
H980        H  0.41739864  0.30432337  0.15843290     0.12200
H981        H  0.53280398  0.27423030  0.12810805     0.09300
H982        H  0.52822817  0.23617795  0.16532540     0.12600
H983        H  0.44006823  0.26455470  0.18592861     0.14500
C984        C  0.49171505  0.61575763  0.08722008    -0.01100
C985        C  0.51513102  0.63586007  0.08497493    -0.09100
C986        C  0.51537440  0.66162790  0.10202606    -0.17900
C987        C  0.49238010  0.66764533  0.12244754     0.04500
C988        C  0.46879683  0.64693904  0.12463107     0.18700
C989        C  0.46841296  0.62166752  0.10669084    -0.19300
C990        C  0.44622538  0.65096653  0.14545570    -0.20600
C991        C  0.44739223  0.67426290  0.16540435    -0.19100
C992        C  0.47066748  0.69455773  0.16433943     0.20100
C993        C  0.49274188  0.69247165  0.14197078     0.02200
C994        C  0.51480687  0.71467350  0.14102303    -0.13900
C995        C  0.51666221  0.73601945  0.16334884    -0.11600
C996        C  0.49651727  0.73584947  0.18685436     0.01700
C997        C  0.47286830  0.71600953  0.18654013    -0.23800
H998        H  0.53327835  0.63175407  0.06981412     0.09700
H999        H  0.53425065  0.67591779  0.09938407     0.13300
H1000       H  0.45036941  0.60601247  0.10863986     0.12000
H1001       H  0.42815828  0.63531785  0.14711046     0.13200
H1002       H  0.43030429  0.67605574  0.18218919     0.12200
H1003       H  0.53141582  0.71553020  0.12387977     0.09300
H1004       H  0.53499217  0.75141798  0.16328272     0.12600
H1005       H  0.45708435  0.71621685  0.20468431     0.14500
C1006       C  0.47710864  0.73692701  0.82247297    -0.01100
C1007       C  0.45149531  0.72045520  0.82723828    -0.09100
C1008       C  0.45087810  0.69828808  0.84863432    -0.17900
C1009       C  0.47644417  0.69138475  0.86517377     0.04500
C1010       C  0.50140822  0.71025857  0.86223156     0.18700
C1011       C  0.50145590  0.73298217  0.84100897    -0.19300
C1012       C  0.52673011  0.70516034  0.87917310    -0.20600
C1013       C  0.52827071  0.68090982  0.89809188    -0.19100
C1014       C  0.50480106  0.66081145  0.89997656     0.20100
C1015       C  0.47850796  0.66583202  0.88357472     0.02200
C1016       C  0.45592623  0.64432049  0.88519991    -0.13900
C1017       C  0.45901991  0.61929402  0.90287639    -0.11600
C1018       C  0.48463908  0.61468429  0.91946010     0.01700
C1019       C  0.50759450  0.63542624  0.91779062    -0.23800
H1020       H  0.43248042  0.72354577  0.81306843     0.09700
H1021       H  0.43047758  0.68621929  0.85083376     0.13300
H1022       H  0.52132018  0.74584231  0.83711340     0.12000
H1023       H  0.54570529  0.71966353  0.87730819     0.13200
H1024       H  0.54831157  0.67735491  0.91064766     0.12200
H1025       H  0.43577117  0.64587671  0.87270386     0.09300
H1026       H  0.44119153  0.60333925  0.90340555     0.12600
H1027       H  0.52752811  0.63195548  0.93055914     0.14500
C1028       C  0.74117852  0.50473482  0.82975476    -0.01100
C1029       C  0.72731368  0.47747096  0.83382841    -0.09100
C1030       C  0.70470665  0.47435064  0.85455915    -0.17900
C1031       C  0.69478859  0.49891905  0.87123656     0.04500
C1032       C  0.71086547  0.52588065  0.86877353     0.18700
C1033       C  0.73413789  0.52842959  0.84829771    -0.19300
C1034       C  0.70216300  0.55075311  0.88503414    -0.20600
C1035       C  0.67666222  0.55005075  0.90223097    -0.19100
C1036       C  0.65930852  0.52446146  0.90354187     0.20100
C1037       C  0.66852579  0.49824344  0.88877275     0.02200
C1038       C  0.65031333  0.47291253  0.89112726    -0.13900
C1039       C  0.62372330  0.47389279  0.90676125    -0.11600
C1040       C  0.61436511  0.50001119  0.92045463     0.01700
C1041       C  0.63242567  0.52513478  0.91907135    -0.23800
H1042       H  0.73252092  0.45907339  0.81931934     0.09700
H1043       H  0.69440007  0.45291786  0.85570063     0.13300
H1044       H  0.74475165  0.54964393  0.84470158     0.12000
H1045       H  0.71451807  0.57123463  0.88353820     0.13200
H1046       H  0.66997399  0.56995528  0.91384774     0.12200
H1047       H  0.65576320  0.45207479  0.88092150     0.09300
H1048       H  0.61026267  0.45411180  0.90794091     0.12600
H1049       H  0.62571047  0.54529304  0.93018854     0.14500
C1050       C  0.49405899  0.37399081  0.92044128    -0.01100
C1051       C  0.51959839  0.35823332  0.91278060    -0.09100
C1052       C  0.51784961  0.33213929  0.89627123    -0.17900
C1053       C  0.49032476  0.32106593  0.88651434     0.04500
C1054       C  0.46446437  0.33717660  0.89435391     0.18700
C1055       C  0.46653069  0.36309260  0.91140867    -0.19300
C1056       C  0.43673231  0.32775572  0.88451535    -0.20600
C1057       C  0.43423687  0.30351406  0.86574610    -0.19100
C1058       C  0.45933280  0.28764908  0.85698517     0.20100
C1059       C  0.48760912  0.29538053  0.86822106     0.02200
C1060       C  0.51200132  0.27761111  0.85978745    -0.13900
C1061       C  0.50880811  0.25490244  0.83903268    -0.11600
C1062       C  0.48137590  0.24925432  0.82621056     0.01700
C1063       C  0.45655020  0.26497909  0.83590911    -0.23800
H1064       H  0.54113516  0.36596755  0.91960627     0.09700
H1065       H  0.53849991  0.32149835  0.89097679     0.13300
H1066       H  0.44660298  0.37510804  0.91723942     0.12000
H1067       H  0.41691374  0.33980781  0.89059050     0.13200
H1068       H  0.41257851  0.29745753  0.85759377     0.12200
H1069       H  0.53394645  0.28124681  0.86817808     0.09300
H1070       H  0.52821694  0.24301065  0.83150047     0.12600
H1071       H  0.43530671  0.26059221  0.82578476     0.14500
C1072       C  0.25474747  0.49143033  0.81985157    -0.01100
C1073       C  0.27266486  0.46634102  0.82139881    -0.09100
C1074       C  0.29549989  0.46466842  0.84184402    -0.17900
C1075       C  0.30161899  0.48861474  0.86101342     0.04500
C1076       C  0.28277769  0.51379926  0.85981806     0.18700
C1077       C  0.25917936  0.51473198  0.83967787    -0.19300
C1078       C  0.28855247  0.53846400  0.87761439    -0.20600
C1079       C  0.31312991  0.53901840  0.89601555    -0.19100
C1080       C  0.33222252  0.51469427  0.89749690     0.20100
C1081       C  0.32638247  0.48889849  0.88046312     0.02200
C1082       C  0.34581030  0.46460480  0.88337984    -0.13900
C1083       C  0.37012132  0.46598989  0.90209639    -0.11600
C1084       C  0.37602897  0.49150309  0.91855881     0.01700
C1085       C  0.35709375  0.51590841  0.91603930    -0.23800
H1086       H  0.26973380  0.44839955  0.80575258     0.09700
H1087       H  0.30870684  0.44487672  0.84107057     0.13300
H1088       H  0.24569738  0.53447819  0.83785006     0.12000
H1089       H  0.27435555  0.55775046  0.87677103     0.13200
H1090       H  0.31729078  0.55866441  0.90911169     0.12200
H1091       H  0.34276498  0.44404192  0.87175533     0.09300
H1092       H  0.38437313  0.44682936  0.90360732     0.12600
H1093       H  0.36135919  0.53565189  0.92897505     0.14500
C1094       C  0.37726799  0.48811351  0.09233178    -0.01100
C1095       C  0.35776312  0.51207071  0.09433802    -0.09100
C1096       C  0.33176032  0.50993775  0.11101012    -0.17900
C1097       C  0.32468141  0.48374049  0.12661729     0.04500
C1098       C  0.34535872  0.46006010  0.12566617     0.18700
C1099       C  0.37105415  0.46229180  0.10832252    -0.19300
C1100       C  0.34046258  0.43440378  0.14230090    -0.20600
C1101       C  0.31589039  0.43212047  0.16067068    -0.19100
C1102       C  0.29513389  0.45501988  0.16206113     0.20100
C1103       C  0.29849564  0.48061712  0.14411915     0.02200
C1104       C  0.27579498  0.50218608  0.14508117    -0.13900
C1105       C  0.25260714  0.50000254  0.16556626    -0.11600
C1106       C  0.25140503  0.47626609  0.18534900     0.01700
C1107       C  0.27180436  0.45315701  0.18244971    -0.23800
H1108       H  0.36226137  0.53236190  0.08240337     0.09700
H1109       H  0.31783969  0.52927722  0.11163159     0.13300
H1110       H  0.38635858  0.44386632  0.10745010     0.12000
H1111       H  0.35616530  0.41630540  0.14172262     0.13200
H1112       H  0.31325972  0.41243386  0.17411979     0.12200
H1113       H  0.27589043  0.52137192  0.13091056     0.09300
H1114       H  0.23689233  0.51798555  0.16741819     0.12600
H1115       H  0.27061367  0.43455454  0.19758229     0.14500
C1116       C  0.73803547  0.48955068  0.18309202    -0.01100
C1117       C  0.72327634  0.46338637  0.17591975    -0.09100
C1118       C  0.70033134  0.46334449  0.15532010    -0.17900
C1119       C  0.69082396  0.48989350  0.14173986     0.04500
C1120       C  0.70711206  0.51611701  0.14778877     0.18700
C1121       C  0.73062613  0.51566276  0.16817477    -0.14800
C1122       C  0.69882287  0.54291243  0.13466876    -0.20600
C1123       C  0.67420230  0.54445098  0.11632697    -0.19100
C1124       C  0.65706646  0.51927600  0.11074602     0.20100
C1125       C  0.66524846  0.49156524  0.12320562     0.02200
C1126       C  0.64702384  0.46689908  0.11714159    -0.13900
C1127       C  0.62204634  0.46956663  0.09928059    -0.11600
C1128       C  0.61409821  0.49680803  0.08691252     0.01700
C1129       C  0.63168014  0.52166991  0.09287914    -0.23800
H1130       H  0.72838531  0.44313926  0.18767244     0.09700
H1131       H  0.68972710  0.44238211  0.15145826     0.13300
H1132       H  0.74158437  0.53610488  0.17424664     0.12000
H1133       H  0.71117107  0.56296728  0.13905001     0.13200
H1134       H  0.66824532  0.56562191  0.10680789     0.12200
H1135       H  0.65137970  0.44519625  0.12592478     0.09300
H1136       H  0.60881399  0.45004940  0.09512505     0.12600
H1137       H  0.62588490  0.54286642  0.08333631     0.14500
loop_ 
_geom_bond_atom_site_label_1 
_geom_bond_atom_site_label_2 
_geom_bond_distance 
_geom_bond_site_symmetry_2 
_ccdc_geom_bond_type 
C1           N19   1.348       .  A
C1           C38   1.465       .  S
C1          C962   1.477       .  S
N2           N19   1.321       .  A
N2           N24   1.319       .  A
N2          Co39   2.074       .  S
C3           N28   1.338       .  A
C3           C41   1.460       .  S
C3           H48   1.081       .  S
H4           C45   1.081       .  S
C5           N29   1.339       .  A
C5            C9   1.460       .  S
C5           H34   1.081       .  S
Co6          N24   2.087       .  S
Co6          N14   2.092       .  S
Co6          N46   2.089   1_554  S
Co6          N22   2.084   1_554  S
Co6         Cl50   2.452       .  S
N7           C45   1.344       .  A
N7           N14   1.321       .  A
N7           Co8   2.094       .  S
Co8          N11   2.076       .  S
Co8          N28   2.075   1_554  S
Co8          N15   2.095   1_554  S
Co8         Cl50   2.455       .  S
C9           N47   1.348       .  A
C9          C984   1.471       .  S
N10          N17   1.319       .  A
N10          N40   1.326       .  A
N10         Co43   2.087       .  S
N11          N29   1.321       .  A
N11          N47   1.323       .  A
N12          C41   1.350       .  A
N12          N22   1.323       .  A
H13          C38   1.081       .  S
N14          N35   1.324       .  A
N15          N33   1.321       .  A
N15          N20   1.327       .  A
C16          N20   1.353       .  A
C16          C44   1.457       .  S
C16        C1018   1.477       .  S
N17          C32   1.338       .  A
N17         Co39   2.077       .  S
C18          N46   1.342       .  A
C18          C21   1.466       .  S
C18          H52   1.081       .  S
C21          N42   1.349       .  A
C21        C1050   1.482       .  S
N22          N28   1.320       .  A
N23          C49   1.337       .  A
N23          N25   1.318       .  A
N23         Co39   2.076   1_556  S
N24          C38   1.343       .  A
N25          N53   1.326       .  A
N25         Co43   2.083   1_556  S
H26          C49   1.081       .  S
H27          C44   1.082       .  S
N29         Co43   2.081       .  S
N30          N42   1.323       .  A
N30          N46   1.319       .  A
N30         Co39   2.079   1_556  S
C31          N35   1.351       .  A
C31          C45   1.465       .  S
C31        C1128   1.485       .  S
C32          C51   1.459       .  S
C32          H36   1.081       .  S
N33          C44   1.336       .  A
N33         Co43   2.077   1_556  S
C37          N53   1.352       .  A
C37          C49   1.459       .  S
C37        C1084   1.476       .  S
Co39        Cl50   2.439       .  S
N40          C51   1.353       .  A
C41        C1040   1.473       .  S
Co43        Cl50   2.453       .  S
C51        C1094   1.478       .  S
N54          C58   1.358       .  A
N54          C55   1.360       .  A
N54         C952   1.444       .  S
C55        C1106   1.476       .  S
C55          C56   1.383       .  A
C56          H59   1.082       .  S
C56          C57   1.369       .  A
C57          H60   1.082       .  S
C57          C58   1.379       .  A
C58         C930   1.468       .  S
N61          C65   1.359       .  A
N61          C62   1.360       .  A
N61         C896   1.441       .  S
C62        C1116   1.477       .  S
C62          C63   1.381       .  A
C63          H66   1.082       .  S
C63          C64   1.371       .  A
C64          H67   1.082       .  S
C64          C65   1.381       .  A
C65         C874   1.476       .  S
N68          C72   1.357       .  A
N68          C69   1.355       .  A
N68         C852   1.443       .  S
C69         C842   1.466       .  S
C69          C70   1.379       .  A
C70          H73   1.082       .  S
C70          C71   1.369       .  A
C71          H74   1.082       .  S
C71          C72   1.382       .  A
C72        C1072   1.468       .  S
N75          C79   1.354       .  A
N75          C76   1.356       .  A
N75         C808   1.443       .  S
C76         C786   1.469       .  S
C76          C77   1.382       .  A
C77          H80   1.082       .  S
C77          C78   1.369       .  A
C78          H81   1.082       .  S
C78          C79   1.380       .  A
C79        C1028   1.463       .  S
N82          C87   1.354       .  A
N82          C86   1.356   1_655  A
N82         H114   1.037       .  S
N83          C90   1.353   1_554  A
N83          C91   1.352       .  A
N84          C89   1.355       .  A
N84          C88   1.353   1_655  A
N84         H115   1.036       .  S
N85          C92   1.353   1_554  A
N85          C93   1.355       .  A
C86          C94   1.386       .  A
C86         C102   1.419       .  A
C87         C103   1.419       .  A
C87          C95   1.388       .  A
C88          C96   1.388       .  A
C88         C105   1.418       .  A
C89         C104   1.417       .  A
C89          C97   1.387       .  A
C90         C102   1.414       .  A
C90          C98   1.386       .  A
C91         C105   1.415       .  A
C91          C99   1.387       .  A
C92         C100   1.387       .  A
C92         C103   1.418       .  A
C93         C101   1.385       .  A
C93         C104   1.417       .  A
C94         H106   1.082       .  S
C94          C95   1.377   1_455  A
C95         H107   1.082       .  S
C96         H108   1.082       .  S
C96          C97   1.376   1_455  A
C97         H109   1.082       .  S
C98         H110   1.082       .  S
C98          C99   1.372   1_556  A
C99         H111   1.082       .  S
C100        H112   1.082       .  S
C100        C101   1.373   1_556  A
C101        H113   1.082       .  S
C102        C864   1.493       .  S
C103        C820   1.491       .  S
C104        C908   1.493       .  S
C105        C940   1.487       .  S
C116        N134   1.349       .  A
C116        C153   1.464       .  S
C116        C918   1.477       .  S
N117        N134   1.321       .  A
N117        N139   1.320       .  A
N117       Co154   2.077   1_455  S
C118        N143   1.337       .  A
C118        C156   1.458       .  S
C118        H163   1.082       .  S
H119        C160   1.081       .  S
C120        N144   1.344       .  A
C120        C124   1.466       .  S
C120        H149   1.081       .  S
Co121       N139   2.086   1_655  S
Co121       N129   2.080   1_655  S
Co121       N161   2.082       .  S
Co121       N137   2.087       .  S
Co121      Cl165   2.458       .  S
N122        C160   1.338       .  A
N122        N129   1.319       .  A
N122       Co123   2.079   1_455  S
Co123       N126   2.073   1_655  S
Co123       N143   2.072       .  S
Co123       N130   2.080       .  S
Co123      Cl165   2.430       .  S
C124        N162   1.346       .  A
C124        C830   1.474       .  S
N125        N132   1.320       .  A
N125        N155   1.324       .  A
N125       Co158   2.081   1_455  S
N126        N144   1.319       .  A
N126        N162   1.320       .  A
N127        C156   1.352       .  A
N127        N137   1.325       .  A
H128        C153   1.081       .  S
N129        N150   1.324       .  A
N130        N148   1.319       .  A
N130        N135   1.321       .  A
C131        N135   1.348       .  A
C131        C159   1.461       .  S
C131        C798   1.471       .  S
N132        C147   1.341       .  A
N132       Co154   2.089   1_455  S
C133        N161   1.340       .  A
C133        C136   1.462       .  S
C133        H167   1.081       .  S
C136        N157   1.352       .  A
C136        C886   1.483       .  S
N137        N143   1.319       .  A
N138        C164   1.335       .  A
N138        N140   1.320       .  A
N138       Co154   2.072       .  S
N139        C153   1.341       .  A
N140        N168   1.327       .  A
N140       Co158   2.094       .  S
H141        C164   1.081       .  S
H142        C159   1.081       .  S
N144       Co158   2.090   1_455  S
N145        N157   1.326       .  A
N145        N161   1.320       .  A
N145       Co154   2.091       .  S
C146        N150   1.351       .  A
C146        C160   1.461       .  S
C146        C776   1.477       .  S
C147        C166   1.462       .  S
C147        H151   1.081       .  S
N148        C159   1.341       .  A
N148       Co158   2.076       .  S
C152        N168   1.354       .  A
C152        C164   1.459       .  S
C152        C698   1.479       .  S
Co154      Cl165   2.440       .  S
N155        C166   1.350       .  A
C156        C720   1.475       .  S
Co158      Cl165   2.466       .  S
C166        C742   1.477       .  S
N169        C173   1.357       .  A
N169        C170   1.356       .  A
N169        C676   1.443       .  S
C170        C654   1.469       .  S
C170        C171   1.382       .  A
C171        H174   1.082       .  S
C171        C172   1.368       .  A
C172        H175   1.082       .  S
C172        C173   1.382       .  A
C173        C996   1.471       .  S
N176        C180   1.356       .  A
N176        C177   1.357       .  A
N176        C644   1.440       .  S
C177        C974   1.474       .  S
C177        C178   1.382       .  A
C178        H181   1.082       .  S
C178        C179   1.372       .  A
C179        H182   1.082       .  S
C179        C180   1.380       .  A
C180        C622   1.470       .  S
N183        C187   1.357       .  A
N183        C184   1.358       .  A
N183        C600   1.444       .  S
C184       C1062   1.472       .  S
C184        C185   1.381       .  A
C185        H188   1.082       .  S
C185        C186   1.372       .  A
C186        H189   1.082       .  S
C186        C187   1.380       .  A
C187        C566   1.470       .  S
N190        C194   1.353       .  A
N190        C191   1.356       .  A
N190        C544   1.440       .  S
C191        C522   1.470       .  S
C191        C192   1.382       .  A
C192        H195   1.082       .  S
C192        C193   1.372       .  A
C193        H196   1.082       .  S
C193        C194   1.380       .  A
C194       C1006   1.466       .  S
N197        C202   1.352       .  A
N197        C201   1.354   1_554  A
N197        H229   1.039       .  S
N198        C205   1.355   1_565  A
N198        C206   1.353       .  A
N199        C204   1.356       .  A
N199        C203   1.354   1_554  A
N199        H230   1.039       .  S
N200        C207   1.353   1_565  A
N200        C208   1.352       .  A
C201        C209   1.388       .  A
C201        C217   1.418       .  A
C202        C218   1.416       .  A
C202        C210   1.387       .  A
C203        C211   1.388       .  A
C203        C220   1.419       .  A
C204        C219   1.420       .  A
C204        C212   1.387       .  A
C205        C217   1.418       .  A
C205        C213   1.386       .  A
C206        C220   1.419       .  A
C206        C214   1.387       .  A
C207        C215   1.386       .  A
C207        C218   1.415       .  A
C208        C216   1.386       .  A
C208        C219   1.415       .  A
C209        H221   1.082       .  S
C209        C210   1.376   1_556  A
C210        H222   1.082       .  S
C211        H223   1.082       .  S
C211        C212   1.376   1_556  A
C212        H224   1.082       .  S
C213        H225   1.082       .  S
C213        C214   1.373   1_545  A
C214        H226   1.082       .  S
C215        H227   1.082       .  S
C215        C216   1.372   1_545  A
C216        H228   1.082       .  S
C217        C588   1.494       .  S
C218        C632   1.486       .  S
C219        C688   1.494       .  S
C220        C556   1.488       .  S
N231        C235   1.358       .  A
N231        C232   1.359       .  A
N231        C500   1.447       .  S
C232        C764   1.470       .  S
C232        C233   1.381       .  A
C233        H236   1.082       .  S
C233        C234   1.368       .  A
C234        H237   1.082       .  S
C234        C235   1.380       .  A
C235        C490   1.467       .  S
N238        C242   1.358       .  A
N238        C239   1.358       .  A
N238        C456   1.446       .  S
C239        C446   1.469       .  S
C239        C240   1.381       .  A
C240        H243   1.082       .  S
C240        C241   1.369       .  A
C241        H244   1.082       .  S
C241        C242   1.380       .  A
C242        C710   1.467       .  S
N245        C249   1.358       .  A
N245        C246   1.359       .  A
N245        C424   1.444       .  S
C246        C754   1.472       .  S
C246        C247   1.381       .  A
C247        H250   1.082       .  S
C247        C248   1.370       .  A
C248        H251   1.082       .  S
C248        C249   1.380       .  A
C249        C402   1.469       .  S
N252        C256   1.357       .  A
N252        C253   1.357       .  A
N252        C368   1.445       .  S
C253        C346   1.465       .  S
C253        C254   1.380       .  A
C254        H257   1.082       .  S
C254        C255   1.368       .  A
C255        H258   1.082       .  S
C255        C256   1.381       .  A
C256        C732   1.467       .  S
N259        C264   1.355       .  A
N259        C263   1.355   1_565  A
N259        H291   1.037       .  S
N260        C267   1.354       .  A
N260        C268   1.354   1_655  A
N261        C266   1.354       .  A
N261        C265   1.354   1_565  A
N261        H292   1.038       .  S
N262        C269   1.353       .  A
N262        C270   1.354   1_655  A
C263        C271   1.387       .  A
C263        C279   1.420       .  A
C264        C280   1.420       .  A
C264        C272   1.387       .  A
C265        C273   1.388       .  A
C265        C282   1.417       .  A
C266        C281   1.416       .  A
C266        C274   1.386       .  A
C267        C279   1.418       .  A
C267        C275   1.386       .  A
C268        C282   1.417       .  A
C268        C276   1.386       .  A
C269        C277   1.386       .  A
C269        C280   1.416       .  A
C270        C278   1.386       .  A
C270        C281   1.417       .  A
C271        H283   1.082       .  S
C271        C272   1.377   1_545  A
C272        H284   1.082       .  S
C273        H285   1.082       .  S
C273        C274   1.376   1_545  A
C274        H286   1.082       .  S
C275        H287   1.082       .  S
C275        C276   1.373   1_655  A
C276        H288   1.082       .  S
C277        H289   1.082       .  S
C277        C278   1.372   1_655  A
C278        H290   1.082       .  S
C279        C468   1.496       .  S
C280        C380   1.494       .  S
C281        C512   1.495       .  S
C282        C412   1.492       .  S
C293        N311   1.354       .  A
C293        C330   1.453       .  S
C293        C666   1.471       .  S
N294        N311   1.327       .  A
N294        N316   1.318       .  A
N294       Co331   2.092       .  S
C295        N320   1.344       .  A
C295        C333   1.466       .  S
C295        H340   1.081       .  S
H296        C337   1.081       .  S
C297        N321   1.340       .  A
C297        C301   1.462       .  S
C297        H326   1.081       .  S
Co298       N316   2.063       .  S
Co298       N306   2.077       .  S
Co298       N338   2.086   1_565  S
Co298       N314   2.070   1_565  S
Co298      Cl342   2.436       .  S
N299        C337   1.339       .  A
N299        N306   1.318       .  A
N299       Co300   2.075       .  S
Co300       N303   2.082       .  S
Co300       N320   2.090   1_565  S
Co300       N307   2.085   1_565  S
Co300      Cl342   2.454       .  S
C301        N339   1.349       .  A
C301        C534   1.474       .  S
N302        N309   1.320       .  A
N302        N332   1.324       .  A
N302       Co335   2.087       .  S
N303        N321   1.320       .  A
N303        N339   1.323       .  A
N304        C333   1.347       .  A
N304        N314   1.320       .  A
H305        C330   1.082       .  S
N306        N327   1.323       .  A
N307        N325   1.321       .  A
N307        N312   1.324       .  A
C308        N312   1.351       .  A
C308        C336   1.462       .  S
C308        C578   1.478       .  S
N309        C324   1.338       .  A
N309       Co331   2.074       .  S
C310        N338   1.342       .  A
C310        C313   1.463       .  S
C310        H344   1.082       .  S
C313        N334   1.350       .  A
C313        C610   1.479       .  S
N314        N320   1.320       .  A
N315        C341   1.339       .  A
N315        N317   1.321       .  A
N315       Co331   2.087   1_545  S
N316        C330   1.334       .  A
N317        N345   1.325       .  A
N317       Co335   2.086   1_545  S
H318        C341   1.081       .  S
H319        C336   1.081       .  S
N321       Co335   2.081       .  S
N322        N334   1.323       .  A
N322        N338   1.319       .  A
N322       Co331   2.079   1_545  S
C323        N327   1.349       .  A
C323        C337   1.462       .  S
C323        C358   1.473       .  S
C324        C343   1.460       .  S
C324        H328   1.081       .  S
N325        C336   1.339       .  A
N325       Co335   2.083   1_545  S
C329        N345   1.351       .  A
C329        C341   1.464       .  S
C329        C390   1.481       .  S
Co331      Cl342   2.453       .  S
N332        C343   1.352       .  A
C333        C434   1.475       .  S
Co335      Cl342   2.448       .  S
C343        C478   1.477       .  S
C346        C347   1.396       .  A
C346        C351   1.395       .  A
C347        H360   1.084       .  S
C347        C348   1.394       .  A
C348        H361   1.077       .  S
C348        C349   1.415       .  A
C349        C355   1.427       .  A
C349        C350   1.423       .  A
C350        C352   1.398       .  A
C350        C351   1.403       .  A
C351        H362   1.085       .  S
C352        H363   1.084       .  S
C352        C353   1.388       .  A
C353        H364   1.084       .  S
C353        C354   1.399       .  A
C354        C355   1.422       .  A
C354        C359   1.402       .  A
C355        C356   1.415       .  A
C356        H365   1.077       .  S
C356        C357   1.395       .  A
C357        H366   1.084       .  S
C357        C358   1.399       .  A
C358        C359   1.399       .  A
C359        H367   1.083       .  S
C368        C369   1.401       .  A
C368        C373   1.400       .  A
C369        H382   1.083       .  S
C369        C370   1.400       .  A
C370        H383   1.077       .  S
C370        C371   1.416       .  A
C371        C377   1.435       .  A
C371        C372   1.423       .  A
C372        C374   1.399       .  A
C372        C373   1.407       .  A
C373        H384   1.083       .  S
C374        H385   1.084       .  S
C374        C375   1.390       .  A
C375        H386   1.084       .  S
C375        C376   1.399       .  A
C376        C377   1.424       .  A
C376        C381   1.406       .  A
C377        C378   1.417       .  A
C378        H387   1.077       .  S
C378        C379   1.400       .  A
C379        H388   1.083       .  S
C379        C380   1.401       .  A
C380        C381   1.400       .  A
C381        H389   1.085       .  S
C390        C391   1.400       .  A
C390        C395   1.403       .  A
C391        H404   1.081       .  S
C391        C392   1.394       .  A
C392        H405   1.077       .  S
C392        C393   1.413       .  A
C393        C399   1.429       .  A
C393        C394   1.423       .  A
C394        C396   1.400       .  A
C394        C395   1.408       .  A
C395        H406   1.084       .  S
C396        H407   1.084       .  S
C396        C397   1.392       .  A
C397        H408   1.084       .  S
C397        C398   1.400       .  A
C398        C399   1.422       .  A
C398        C403   1.405       .  A
C399        C400   1.416       .  A
C400        H409   1.077       .  S
C400        C401   1.395       .  A
C401        H410   1.084       .  S
C401        C402   1.396       .  A
C402        C403   1.399       .  A
C403        H411   1.085       .  S
C412        C413   1.399       .  A
C412        C417   1.401       .  A
C413        H426   1.083       .  S
C413        C414   1.398       .  A
C414        H427   1.077       .  S
C414        C415   1.416       .  A
C415        C421   1.432       .  A
C415        C416   1.423       .  A
C416        C418   1.400       .  A
C416        C417   1.407       .  A
C417        H428   1.085       .  S
C418        H429   1.084       .  S
C418        C419   1.391       .  A
C419        H430   1.084       .  S
C419        C420   1.400       .  A
C420        C421   1.423       .  A
C420        C425   1.407       .  A
C421        C422   1.415       .  A
C422        H431   1.077       .  S
C422        C423   1.398       .  A
C423        H432   1.082       .  S
C423        C424   1.399       .  A
C424        C425   1.402       .  A
C425        H433   1.082       .  S
C434        C435   1.399       .  A
C434        C439   1.399       .  A
C435        H448   1.083       .  S
C435        C436   1.400       .  A
C436        H449   1.078       .  S
C436        C437   1.417       .  A
C437        C443   1.429       .  A
C437        C438   1.422       .  A
C438        C440   1.399       .  A
C438        C439   1.399       .  A
C439        H450   1.085       .  S
C440        H451   1.084       .  S
C440        C441   1.387       .  A
C441        H452   1.084       .  S
C441        C442   1.398       .  A
C442        C443   1.423       .  A
C442        C447   1.401       .  A
C443        C444   1.416       .  A
C444        H453   1.078       .  S
C444        C445   1.398       .  A
C445        H454   1.084       .  S
C445        C446   1.397       .  A
C446        C447   1.396       .  A
C447        H455   1.085       .  S
C456        C457   1.401       .  A
C456        C461   1.402       .  A
C457        H470   1.083       .  S
C457        C458   1.398       .  A
C458        H471   1.077       .  S
C458        C459   1.415       .  A
C459        C465   1.434       .  A
C459        C460   1.424       .  A
C460        C462   1.400       .  A
C460        C461   1.410       .  A
C461        H472   1.082       .  S
C462        H473   1.084       .  S
C462        C463   1.392       .  A
C463        H474   1.084       .  S
C463        C464   1.400       .  A
C464        C465   1.423       .  A
C464        C469   1.409       .  A
C465        C466   1.417       .  A
C466        H475   1.077       .  S
C466        C467   1.399       .  A
C467        H476   1.083       .  S
C467        C468   1.400       .  A
C468        C469   1.403       .  A
C469        H477   1.084       .  S
C478        C479   1.400       .  A
C478        C483   1.401       .  A
C479        H492   1.082       .  S
C479        C480   1.394       .  A
C480        H493   1.077       .  S
C480        C481   1.414       .  A
C481        C487   1.428       .  A
C481        C482   1.422       .  A
C482        C484   1.400       .  A
C482        C483   1.404       .  A
C483        H494   1.084       .  S
C484        H495   1.084       .  S
C484        C485   1.390       .  A
C485        H496   1.084       .  S
C485        C486   1.399       .  A
C486        C487   1.424       .  A
C486        C491   1.405       .  A
C487        C488   1.414       .  A
C488        H497   1.077       .  S
C488        C489   1.393       .  A
C489        H498   1.084       .  S
C489        C490   1.395       .  A
C490        C491   1.396       .  A
C491        H499   1.085       .  S
C500        C501   1.400       .  A
C500        C505   1.403       .  A
C501        H514   1.082       .  S
C501        C502   1.398       .  A
C502        H515   1.077       .  S
C502        C503   1.415       .  A
C503        C509   1.433       .  A
C503        C504   1.422       .  A
C504        C506   1.400       .  A
C504        C505   1.407       .  A
C505        H516   1.083       .  S
C506        H517   1.084       .  S
C506        C507   1.391       .  A
C507        H518   1.084       .  S
C507        C508   1.400       .  A
C508        C509   1.423       .  A
C508        C513   1.408       .  A
C509        C510   1.416       .  A
C510        H519   1.077       .  S
C510        C511   1.398       .  A
C511        H520   1.083       .  S
C511        C512   1.400       .  A
C512        C513   1.402       .  A
C513        H521   1.085       .  S
C522        C523   1.396       .  A
C522        C527   1.398       .  A
C523        H536   1.083       .  S
C523        C524   1.397       .  A
C524        H537   1.078       .  S
C524        C525   1.417       .  A
C525        C531   1.427       .  A
C525        C526   1.421       .  A
C526        C528   1.399       .  A
C526        C527   1.401       .  A
C527        H538   1.085       .  S
C528        H539   1.084       .  S
C528        C529   1.389       .  A
C529        H540   1.084       .  S
C529        C530   1.399       .  A
C530        C531   1.423       .  A
C530        C535   1.403       .  A
C531        C532   1.414       .  A
C532        H541   1.077       .  S
C532        C533   1.395       .  A
C533        H542   1.082       .  S
C533        C534   1.399       .  A
C534        C535   1.400       .  A
C535        H543   1.085       .  S
C544        C545   1.400       .  A
C544        C549   1.396       .  A
C545        H558   1.083       .  S
C545        C546   1.401       .  A
C546        H559   1.078       .  S
C546        C547   1.417       .  A
C547        C553   1.433       .  A
C547        C548   1.424       .  A
C548        C550   1.397       .  A
C548        C549   1.402       .  A
C549        H560   1.084       .  S
C550        H561   1.084       .  S
C550        C551   1.386       .  A
C551        H562   1.084       .  S
C551        C552   1.397       .  A
C552        C553   1.423       .  A
C552        C557   1.401       .  A
C553        C554   1.418       .  A
C554        H563   1.078       .  S
C554        C555   1.402       .  A
C555        H564   1.083       .  S
C555        C556   1.400       .  A
C556        C557   1.396       .  A
C557        H565   1.085       .  S
C566        C567   1.396       .  A
C566        C571   1.397       .  A
C567        H580   1.084       .  S
C567        C568   1.398       .  A
C568        H581   1.078       .  S
C568        C569   1.417       .  A
C569        C575   1.429       .  A
C569        C570   1.422       .  A
C570        C572   1.399       .  A
C570        C571   1.403       .  A
C571        H582   1.085       .  S
C572        H583   1.084       .  S
C572        C573   1.389       .  A
C573        H584   1.084       .  S
C573        C574   1.399       .  A
C574        C575   1.423       .  A
C574        C579   1.405       .  A
C575        C576   1.414       .  A
C576        H585   1.077       .  S
C576        C577   1.397       .  A
C577        H586   1.082       .  S
C577        C578   1.401       .  A
C578        C579   1.400       .  A
C579        H587   1.085       .  S
C588        C589   1.400       .  A
C588        C593   1.399       .  A
C589        H602   1.083       .  S
C589        C590   1.402       .  A
C590        H603   1.078       .  S
C590        C591   1.418       .  A
C591        C597   1.435       .  A
C591        C592   1.423       .  A
C592        C594   1.399       .  A
C592        C593   1.405       .  A
C593        H604   1.085       .  S
C594        H605   1.084       .  S
C594        C595   1.389       .  A
C595        H606   1.084       .  S
C595        C596   1.399       .  A
C596        C597   1.424       .  A
C596        C601   1.406       .  A
C597        C598   1.416       .  A
C598        H607   1.078       .  S
C598        C599   1.401       .  A
C599        H608   1.082       .  S
C599        C600   1.401       .  A
C600        C601   1.399       .  A
C601        H609   1.084       .  S
C610        C611   1.400       .  A
C610        C615   1.400       .  A
C611        H624   1.083       .  S
C611        C612   1.395       .  A
C612        H625   1.077       .  S
C612        C613   1.413       .  A
C613        C619   1.430       .  A
C613        C614   1.424       .  A
C614        C616   1.399       .  A
C614        C615   1.406       .  A
C615        H626   1.084       .  S
C616        H627   1.084       .  S
C616        C617   1.390       .  A
C617        H628   1.084       .  S
C617        C618   1.399       .  A
C618        C619   1.422       .  A
C618        C623   1.402       .  A
C619        C620   1.418       .  A
C620        H629   1.077       .  S
C620        C621   1.398       .  A
C621        H630   1.084       .  S
C621        C622   1.396       .  A
C622        C623   1.398       .  A
C623        H631   1.085       .  S
C632        C633   1.399       .  A
C632        C637   1.397       .  A
C633        H646   1.083       .  S
C633        C634   1.399       .  A
C634        H647   1.077       .  S
C634        C635   1.417       .  A
C635        C641   1.432       .  A
C635        C636   1.424       .  A
C636        C638   1.398       .  A
C636        C637   1.403       .  A
C637        H648   1.085       .  S
C638        H649   1.084       .  S
C638        C639   1.388       .  A
C639        H650   1.084       .  S
C639        C640   1.399       .  A
C640        C641   1.423       .  A
C640        C645   1.404       .  A
C641        C642   1.417       .  A
C642        H651   1.077       .  S
C642        C643   1.400       .  A
C643        H652   1.083       .  S
C643        C644   1.399       .  A
C644        C645   1.398       .  A
C645        H653   1.084       .  S
C654        C655   1.397       .  A
C654        C659   1.398       .  A
C655        H668   1.084       .  S
C655        C656   1.391       .  A
C656        H669   1.077       .  S
C656        C657   1.413       .  A
C657        C663   1.425       .  A
C657        C658   1.422       .  A
C658        C660   1.399       .  A
C658        C659   1.406       .  A
C659        H670   1.085       .  S
C660        H671   1.084       .  S
C660        C661   1.392       .  A
C661        H672   1.084       .  S
C661        C662   1.400       .  A
C662        C663   1.423       .  A
C662        C667   1.406       .  A
C663        C664   1.413       .  A
C664        H673   1.077       .  S
C664        C665   1.391       .  A
C665        H674   1.083       .  S
C665        C666   1.398       .  A
C666        C667   1.400       .  A
C667        H675   1.084       .  S
C676        C677   1.400       .  A
C676        C681   1.400       .  A
C677        H690   1.083       .  S
C677        C678   1.399       .  A
C678        H691   1.077       .  S
C678        C679   1.417       .  A
C679        C685   1.433       .  A
C679        C680   1.423       .  A
C680        C682   1.399       .  A
C680        C681   1.405       .  A
C681        H692   1.084       .  S
C682        H693   1.084       .  S
C682        C683   1.390       .  A
C683        H694   1.084       .  S
C683        C684   1.399       .  A
C684        C685   1.424       .  A
C684        C689   1.407       .  A
C685        C686   1.415       .  A
C686        H695   1.077       .  S
C686        C687   1.398       .  A
C687        H696   1.083       .  S
C687        C688   1.401       .  A
C688        C689   1.400       .  A
C689        H697   1.084       .  S
C698        C699   1.399       .  A
C698        C703   1.401       .  A
C699        H712   1.083       .  S
C699        C700   1.399       .  A
C700        H713   1.077       .  S
C700        C701   1.417       .  A
C701        C707   1.429       .  A
C701        C702   1.421       .  A
C702        C704   1.399       .  A
C702        C703   1.400       .  A
C703        H714   1.082       .  S
C704        H715   1.084       .  S
C704        C705   1.387       .  A
C705        H716   1.084       .  S
C705        C706   1.398       .  A
C706        C707   1.424       .  A
C706        C711   1.403       .  A
C707        C708   1.415       .  A
C708        H717   1.077       .  S
C708        C709   1.396       .  A
C709        H718   1.084       .  S
C709        C710   1.397       .  A
C710        C711   1.395       .  A
C711        H719   1.085       .  S
C720        C721   1.399       .  A
C720        C725   1.400       .  A
C721        H734   1.083       .  S
C721        C722   1.396       .  A
C722        H735   1.078       .  S
C722        C723   1.415       .  A
C723        C729   1.428       .  A
C723        C724   1.422       .  A
C724        C726   1.399       .  A
C724        C725   1.402       .  A
C725        H736   1.084       .  S
C726        H737   1.084       .  S
C726        C727   1.388       .  A
C727        H738   1.084       .  S
C727        C728   1.399       .  A
C728        C729   1.422       .  A
C728        C733   1.400       .  A
C729        C730   1.416       .  A
C730        H739   1.078       .  S
C730        C731   1.397       .  A
C731        H740   1.084       .  S
C731        C732   1.396       .  A
C732        C733   1.397       .  A
C733        H741   1.085       .  S
C742        C743   1.400       .  A
C742        C747   1.400       .  A
C743        H756   1.082       .  S
C743        C744   1.397       .  A
C744        H757   1.077       .  S
C744        C745   1.414       .  A
C745        C751   1.430       .  A
C745        C746   1.424       .  A
C746        C748   1.399       .  A
C746        C747   1.405       .  A
C747        H758   1.085       .  S
C748        H759   1.084       .  S
C748        C749   1.389       .  A
C749        H760   1.084       .  S
C749        C750   1.399       .  A
C750        C751   1.421       .  A
C750        C755   1.401       .  A
C751        C752   1.418       .  A
C752        H761   1.078       .  S
C752        C753   1.400       .  A
C753        H762   1.083       .  S
C753        C754   1.396       .  A
C754        C755   1.398       .  A
C755        H763   1.085       .  S
C764        C765   1.397       .  A
C764        C769   1.396       .  A
C765        H778   1.083       .  S
C765        C766   1.399       .  A
C766        H779   1.078       .  S
C766        C767   1.417       .  A
C767        C773   1.430       .  A
C767        C768   1.422       .  A
C768        C770   1.398       .  A
C768        C769   1.400       .  A
C769        H780   1.085       .  S
C770        H781   1.084       .  S
C770        C771   1.387       .  A
C771        H782   1.084       .  S
C771        C772   1.398       .  A
C772        C773   1.423       .  A
C772        C777   1.402       .  A
C773        C774   1.415       .  A
C774        H783   1.078       .  S
C774        C775   1.398       .  A
C775        H784   1.083       .  S
C775        C776   1.401       .  A
C776        C777   1.399       .  A
C777        H785   1.084       .  S
C786        C787   1.397       .  A
C786        C791   1.396       .  A
C787        H800   1.084       .  S
C787        C788   1.398       .  A
C788        H801   1.078       .  S
C788        C789   1.416       .  A
C789        C795   1.428       .  A
C789        C790   1.422       .  A
C790        C792   1.398       .  A
C790        C791   1.399       .  A
C791        H802   1.085       .  S
C792        H803   1.084       .  S
C792        C793   1.386       .  A
C793        H804   1.084       .  S
C793        C794   1.398       .  A
C794        C795   1.422       .  A
C794        C799   1.398       .  A
C795        C796   1.416       .  A
C796        H805   1.078       .  S
C796        C797   1.398       .  A
C797        H806   1.083       .  S
C797        C798   1.399       .  A
C798        C799   1.397       .  A
C799        H807   1.085       .  S
C808        C809   1.399       .  A
C808        C813   1.401       .  A
C809        H822   1.083       .  S
C809        C810   1.397       .  A
C810        H823   1.077       .  S
C810        C811   1.415       .  A
C811        C817   1.432       .  A
C811        C812   1.424       .  A
C812        C814   1.399       .  A
C812        C813   1.408       .  A
C813        H824   1.083       .  S
C814        H825   1.084       .  S
C814        C815   1.391       .  A
C815        H826   1.084       .  S
C815        C816   1.399       .  A
C816        C817   1.423       .  A
C816        C821   1.406       .  A
C817        C818   1.416       .  A
C818        H827   1.077       .  S
C818        C819   1.398       .  A
C819        H828   1.084       .  S
C819        C820   1.399       .  A
C820        C821   1.400       .  A
C821        H829   1.085       .  S
C830        C831   1.399       .  A
C830        C835   1.400       .  A
C831        H844   1.084       .  S
C831        C832   1.392       .  A
C832        H845   1.077       .  S
C832        C833   1.413       .  A
C833        C839   1.426       .  A
C833        C834   1.423       .  A
C834        C836   1.400       .  A
C834        C835   1.406       .  A
C835        H846   1.084       .  S
C836        H847   1.084       .  S
C836        C837   1.391       .  A
C837        H848   1.084       .  S
C837        C838   1.399       .  A
C838        C839   1.422       .  A
C838        C843   1.404       .  A
C839        C840   1.415       .  A
C840        H849   1.077       .  S
C840        C841   1.393       .  A
C841        H850   1.084       .  S
C841        C842   1.395       .  A
C842        C843   1.397       .  A
C843        H851   1.085       .  S
C852        C853   1.399       .  A
C852        C857   1.402       .  A
C853        H866   1.083       .  S
C853        C854   1.396       .  A
C854        H867   1.077       .  S
C854        C855   1.415       .  A
C855        C861   1.433       .  A
C855        C856   1.424       .  A
C856        C858   1.400       .  A
C856        C857   1.410       .  A
C857        H868   1.084       .  S
C858        H869   1.084       .  S
C858        C859   1.393       .  A
C859        H870   1.084       .  S
C859        C860   1.401       .  A
C860        C861   1.423       .  A
C860        C865   1.409       .  A
C861        C862   1.417       .  A
C862        H871   1.077       .  S
C862        C863   1.398       .  A
C863        H872   1.083       .  S
C863        C864   1.398       .  A
C864        C865   1.403       .  A
C865        H873   1.084       .  S
C874        C875   1.397       .  A
C874        C879   1.400       .  A
C875        H888   1.084       .  S
C875        C876   1.395       .  A
C876        H889   1.077       .  S
C876        C877   1.415       .  A
C877        C883   1.432       .  A
C877        C878   1.424       .  A
C878        C880   1.400       .  A
C878        C879   1.410       .  A
C879        H890   1.085       .  S
C880        H891   1.084       .  S
C880        C881   1.393       .  A
C881        H892   1.084       .  S
C881        C882   1.401       .  A
C882        C883   1.422       .  A
C882        C887   1.409       .  A
C883        C884   1.415       .  A
C884        H893   1.077       .  S
C884        C885   1.396       .  A
C885        H894   1.082       .  S
C885        C886   1.400       .  A
C886        C887   1.404       .  A
C887        H895   1.084       .  S
C896        C897   1.398       .  A
C896        C901   1.400       .  A
C897        H910   1.083       .  S
C897        C898   1.399       .  A
C898        H911   1.077       .  S
C898        C899   1.417       .  A
C899        C905   1.434       .  A
C899        C900   1.423       .  A
C900        C902   1.400       .  A
C900        C901   1.409       .  A
C901        H912   1.084       .  S
C902        H913   1.084       .  S
C902        C903   1.392       .  A
C903        H914   1.084       .  S
C903        C904   1.400       .  A
C904        C905   1.424       .  A
C904        C909   1.410       .  A
C905        C906   1.416       .  A
C906        H915   1.077       .  S
C906        C907   1.398       .  A
C907        H916   1.083       .  S
C907        C908   1.398       .  A
C908        C909   1.401       .  A
C909        H917   1.084       .  S
C918        C919   1.400       .  A
C918        C923   1.401       .  A
C919        H932   1.083       .  S
C919        C920   1.393       .  A
C920        H933   1.077       .  S
C920        C921   1.413       .  A
C921        C927   1.427       .  A
C921        C922   1.423       .  A
C922        C924   1.400       .  A
C922        C923   1.406       .  A
C923        H934   1.083       .  S
C924        H935   1.084       .  S
C924        C925   1.391       .  A
C925        H936   1.084       .  S
C925        C926   1.400       .  A
C926        C927   1.421       .  A
C926        C931   1.404       .  A
C927        C928   1.415       .  A
C928        H937   1.078       .  S
C928        C929   1.395       .  A
C929        H938   1.084       .  S
C929        C930   1.395       .  A
C930        C931   1.398       .  A
C931        H939   1.085       .  S
C940        C941   1.398       .  A
C940        C945   1.399       .  A
C941        H954   1.083       .  S
C941        C942   1.397       .  A
C942        H955   1.077       .  S
C942        C943   1.417       .  A
C943        C949   1.432       .  A
C943        C944   1.423       .  A
C944        C946   1.399       .  A
C944        C945   1.405       .  A
C945        H956   1.085       .  S
C946        H957   1.084       .  S
C946        C947   1.390       .  A
C947        H958   1.084       .  S
C947        C948   1.399       .  A
C948        C949   1.423       .  A
C948        C953   1.406       .  A
C949        C950   1.415       .  A
C950        H959   1.077       .  S
C950        C951   1.397       .  A
C951        H960   1.082       .  S
C951        C952   1.400       .  A
C952        C953   1.400       .  A
C953        H961   1.084       .  S
C962        C963   1.400       .  A
C962        C967   1.400       .  A
C963        H976   1.082       .  S
C963        C964   1.400       .  A
C964        H977   1.078       .  S
C964        C965   1.416       .  A
C965        C971   1.430       .  A
C965        C966   1.422       .  A
C966        C968   1.399       .  A
C966        C967   1.402       .  A
C967        H978   1.085       .  S
C968        H979   1.084       .  S
C968        C969   1.388       .  A
C969        H980   1.084       .  S
C969        C970   1.398       .  A
C970        C971   1.422       .  A
C970        C975   1.402       .  A
C971        C972   1.416       .  A
C972        H981   1.078       .  S
C972        C973   1.400       .  A
C973        H982   1.083       .  S
C973        C974   1.398       .  A
C974        C975   1.398       .  A
C975        H983   1.085       .  S
C984        C985   1.400       .  A
C984        C989   1.396       .  A
C985        H998   1.083       .  S
C985        C986   1.396       .  A
C986        H999   1.078       .  S
C986        C987   1.414       .  A
C987        C993   1.427       .  A
C987        C988   1.423       .  A
C988        C990   1.398       .  A
C988        C989   1.400       .  A
C989       H1000   1.084       .  S
C990       H1001   1.084       .  S
C990        C991   1.387       .  A
C991       H1002   1.084       .  S
C991        C992   1.398       .  A
C992        C993   1.421       .  A
C992        C997   1.398       .  A
C993        C994   1.417       .  A
C994       H1003   1.078       .  S
C994        C995   1.398       .  A
C995       H1004   1.083       .  S
C995        C996   1.397       .  A
C996        C997   1.397       .  A
C997       H1005   1.085       .  S
C1006      C1007   1.394       .  A
C1006      C1011   1.398       .  A
C1007      H1020   1.084       .  S
C1007      C1008   1.393       .  A
C1008      H1021   1.077       .  S
C1008      C1009   1.415       .  A
C1009      C1015   1.427       .  A
C1009      C1010   1.422       .  A
C1010      C1012   1.400       .  A
C1010      C1011   1.405       .  A
C1011      H1022   1.085       .  S
C1012      H1023   1.084       .  S
C1012      C1013   1.392       .  A
C1013      H1024   1.084       .  S
C1013      C1014   1.401       .  A
C1014      C1015   1.423       .  A
C1014      C1019   1.408       .  A
C1015      C1016   1.413       .  A
C1016      H1025   1.077       .  S
C1016      C1017   1.392       .  A
C1017      H1026   1.083       .  S
C1017      C1018   1.399       .  A
C1018      C1019   1.402       .  A
C1019      H1027   1.084       .  S
C1028      C1029   1.395       .  A
C1028      C1033   1.395       .  A
C1029      H1042   1.084       .  S
C1029      C1030   1.392       .  A
C1030      H1043   1.077       .  S
C1030      C1031   1.414       .  A
C1031      C1037   1.426       .  A
C1031      C1032   1.424       .  A
C1032      C1034   1.398       .  A
C1032      C1033   1.404       .  A
C1033      H1044   1.085       .  S
C1034      H1045   1.084       .  S
C1034      C1035   1.389       .  A
C1035      H1046   1.084       .  S
C1035      C1036   1.400       .  A
C1036      C1037   1.422       .  A
C1036      C1041   1.403       .  A
C1037      C1038   1.415       .  A
C1038      H1047   1.077       .  S
C1038      C1039   1.394       .  A
C1039      H1048   1.084       .  S
C1039      C1040   1.398       .  A
C1040      C1041   1.401       .  A
C1041      H1049   1.083       .  S
C1050      C1051   1.400       .  A
C1050      C1055   1.402       .  A
C1051      H1064   1.082       .  S
C1051      C1052   1.398       .  A
C1052      H1065   1.077       .  S
C1052      C1053   1.415       .  A
C1053      C1059   1.430       .  A
C1053      C1054   1.422       .  A
C1054      C1056   1.400       .  A
C1054      C1055   1.405       .  A
C1055      H1066   1.085       .  S
C1056      H1067   1.084       .  S
C1056      C1057   1.390       .  A
C1057      H1068   1.084       .  S
C1057      C1058   1.399       .  A
C1058      C1059   1.423       .  A
C1058      C1063   1.404       .  A
C1059      C1060   1.416       .  A
C1060      H1069   1.077       .  S
C1060      C1061   1.398       .  A
C1061      H1070   1.084       .  S
C1061      C1062   1.396       .  A
C1062      C1063   1.399       .  A
C1063      H1071   1.085       .  S
C1072      C1073   1.396       .  A
C1072      C1077   1.397       .  A
C1073      H1086   1.084       .  S
C1073      C1074   1.391       .  A
C1074      H1087   1.077       .  S
C1074      C1075   1.414       .  A
C1075      C1081   1.427       .  A
C1075      C1076   1.424       .  A
C1076      C1078   1.399       .  A
C1076      C1077   1.406       .  A
C1077      H1088   1.085       .  S
C1078      H1089   1.084       .  S
C1078      C1079   1.392       .  A
C1079      H1090   1.084       .  S
C1079      C1080   1.400       .  A
C1080      C1081   1.422       .  A
C1080      C1085   1.407       .  A
C1081      C1082   1.413       .  A
C1082      H1091   1.077       .  S
C1082      C1083   1.392       .  A
C1083      H1092   1.082       .  S
C1083      C1084   1.398       .  A
C1084      C1085   1.402       .  A
C1085      H1093   1.084       .  S
C1094      C1095   1.400       .  A
C1094      C1099   1.401       .  A
C1095      H1108   1.083       .  S
C1095      C1096   1.398       .  A
C1096      H1109   1.078       .  S
C1096      C1097   1.415       .  A
C1097      C1103   1.429       .  A
C1097      C1098   1.422       .  A
C1098      C1100   1.399       .  A
C1098      C1099   1.404       .  A
C1099      H1110   1.084       .  S
C1100      H1111   1.084       .  S
C1100      C1101   1.389       .  A
C1101      H1112   1.084       .  S
C1101      C1102   1.399       .  A
C1102      C1103   1.421       .  A
C1102      C1107   1.401       .  A
C1103      C1104   1.417       .  A
C1104      H1113   1.078       .  S
C1104      C1105   1.400       .  A
C1105      H1114   1.083       .  S
C1105      C1106   1.397       .  A
C1106      C1107   1.400       .  A
C1107      H1115   1.085       .  S
C1116      C1117   1.397       .  A
C1116      C1121   1.401       .  A
C1117      H1130   1.084       .  S
C1117      C1118   1.397       .  A
C1118      H1131   1.077       .  S
C1118      C1119   1.416       .  A
C1119      C1125   1.433       .  A
C1119      C1120   1.423       .  A
C1120      C1122   1.401       .  A
C1120      C1121   1.410       .  A
C1121      H1132   1.085       .  S
C1122      H1133   1.084       .  S
C1122      C1123   1.393       .  A
C1123      H1134   1.084       .  S
C1123      C1124   1.401       .  A
C1124      C1125   1.423       .  A
C1124      C1129   1.411       .  A
C1125      C1126   1.415       .  A
C1126      H1135   1.077       .  S
C1126      C1127   1.397       .  A
C1127      H1136   1.083       .  S
C1127      C1128   1.400       .  A
C1128      C1129   1.404       .  A
C1129      H1137   1.083       .  S
