geometry optimzed in LAMMPS
_audit_creation_date              2020-11-30 
_audit_creation_method            'lammps2cif' 
_symmetry_space_group_name_H-M    'P1' 
_symmetry_Int_Tables_number       1 
_symmetry_cell_setting            triclinic 
loop_ 
_symmetry_equiv_pos_as_xyz 
  x,y,z 
_cell_length_a                    57.185179 
_cell_length_b                    28.6683367949128 
_cell_length_c                    43.98563535281499 
_cell_angle_alpha                 89.62912274504897 
_cell_angle_beta                  90.19940671287621 
_cell_angle_gamma                 89.92892954732264 
loop_ 
_atom_site_label 
_atom_site_type_symbol 
_atom_site_fract_x 
_atom_site_fract_y 
_atom_site_fract_z 
_atom_site_charge 
N1          N  0.36284094  0.55332077  0.96608943    -0.26700
N2          N  0.38285805  0.57285931  0.95816140    -0.34500
C3          C  0.37830325  0.61235944  0.94253873     0.01700
C4          C  0.35424174  0.61812998  0.94046340     0.07700
C5          C  0.34504421  0.58002799  0.95587380    -0.05400
H6          H  0.39162096  0.63579722  0.93410474     0.08300
H7          H  0.32674469  0.57212765  0.95931368     0.09500
Cu8        Cu  0.41560908  0.54612851  0.97006519     0.44200
Cu9        Cu  0.36079979  0.49120367  0.99043603     0.42000
Cu10       Cu  0.41615578  0.43898815  0.01392476     0.43900
N11         N  0.44615413  0.51471723  0.98633289    -0.34100
N12         N  0.44631755  0.47549310  0.00233595    -0.28300
C13         C  0.46858292  0.46432712  0.00935091    -0.04400
C14         C  0.48316619  0.49817230  0.99727421     0.07800
C15         C  0.46833323  0.52960656  0.98286056     0.01600
H16         H  0.47375108  0.43377004  0.02228759     0.09200
H17         H  0.47327983  0.56089177  0.97060876     0.08300
N18         N  0.38362306  0.40900365  0.02206998    -0.35500
N19         N  0.36357505  0.42802476  0.01345767    -0.27700
C20         C  0.34596110  0.39930216  0.02114681    -0.02900
C21         C  0.35529801  0.36002399  0.03519149     0.05700
C22         C  0.37924366  0.36767183  0.03554575     0.03800
H23         H  0.32771613  0.40675606  0.01677076     0.08900
H24         H  0.39260293  0.34429027  0.04417209     0.07700
N25         N  0.62892785  0.56897265  0.98553124    -0.26700
N26         N  0.60885705  0.58759970  0.97657550    -0.34500
C27         C  0.61297866  0.62945181  0.96379722     0.01700
C28         C  0.63679215  0.63824485  0.96496120     0.07700
C29         C  0.64634659  0.59879674  0.97865521    -0.05400
H30         H  0.59947400  0.65147627  0.95415852     0.08300
H31         H  0.66460154  0.59249534  0.98374399     0.09500
Cu32       Cu  0.57622778  0.55760372  0.98276837     0.44200
Cu33       Cu  0.63191282  0.50388594  0.00687848     0.42000
Cu34       Cu  0.57672975  0.44618591  0.02037392     0.43900
N35         N  0.54587804  0.52175318  0.99358188    -0.34100
N36         N  0.54604253  0.48094213  0.00774318    -0.28300
C37         C  0.52382007  0.46657081  0.01149873    -0.04400
C38         C  0.50896909  0.49984737  0.99900921     0.07800
C39         C  0.52358616  0.53439451  0.98787890     0.01600
H40         H  0.51887002  0.43399008  0.02219666     0.09200
H41         H  0.51843817  0.56625423  0.97634360     0.08300
N42         N  0.60914962  0.41598574  0.03032370    -0.35500
N43         N  0.62940722  0.43703595  0.02582718    -0.27700
C44         C  0.64681794  0.40813784  0.03472905    -0.02900
C45         C  0.63709154  0.36667341  0.04538639     0.05700
C46         C  0.61313925  0.37321628  0.04202761     0.03800
H47         H  0.66518426  0.41658174  0.03297693     0.08900
H48         H  0.59947142  0.34885508  0.04806857     0.07700
N49         N  0.23745789  0.90380039  0.59550405    -0.02900
C50         C  0.25035507  0.90967707  0.62123389    -0.00300
C51         C  0.25940222  0.95450653  0.62201227    -0.23200
C52         C  0.25200124  0.97685342  0.59615971    -0.23400
C53         C  0.23858995  0.94520533  0.58043656    -0.00400
H54         H  0.26970965  0.96996069  0.63999325     0.13400
H55         H  0.25625371  0.01214191  0.58927028     0.13400
N56         N  0.25009959  0.10751339  0.36106411    -0.02900
C57         C  0.26512715  0.10441779  0.33729168    -0.00300
C58         C  0.27694335  0.06214062  0.33871800    -0.23200
C59         C  0.26897162  0.03877397  0.36388996    -0.23400
C60         C  0.25245501  0.06721998  0.37703335    -0.00400
H61         H  0.28909263  0.04834733  0.32224082     0.13400
H62         H  0.27436869  0.00444048  0.37153741     0.13400
N63         N  0.27724185  0.06505059  0.10548389    -0.02900
C64         C  0.26751295  0.05743368  0.13321791    -0.00300
C65         C  0.26096722  0.01108922  0.13590401    -0.23200
C66         C  0.26648509  0.98988569  0.10895739    -0.23400
C67         C  0.27627512  0.02374006  0.09050537    -0.00400
H68         H  0.25320694  0.99420773  0.15548567     0.13400
H69         H  0.26320131  0.95383278  0.10319557     0.13400
N70         N  0.27141429  0.90120685  0.85616065    -0.02900
C71         C  0.25911115  0.91005475  0.83022285    -0.00300
C72         C  0.25193357  0.95623481  0.82961727    -0.23200
C73         C  0.25973550  0.97627341  0.85595216    -0.23400
C74         C  0.27156708  0.94191539  0.87184706    -0.00400
H75         H  0.24231285  0.97381200  0.81166306     0.13400
H76         H  0.25645495  0.01168993  0.86316656     0.13400
N77         N  0.13693298  0.43893089  0.44637127    -0.26700
N78         N  0.11743979  0.41444639  0.44371324    -0.34500
C79         C  0.12245213  0.37367057  0.43017586     0.01700
C80         C  0.14611074  0.37282744  0.42358239     0.07700
C81         C  0.15471332  0.41480180  0.43411359    -0.05400
H82         H  0.10992983  0.34609828  0.42621070     0.08300
H83         H  0.17281544  0.42572484  0.43458989     0.09500
Cu84       Cu  0.08503211  0.43614885  0.46010789     0.44200
Cu85       Cu  0.13938790  0.50105946  0.47002847     0.42000
Cu86       Cu  0.08566908  0.54320646  0.50301012     0.43900
N87         N  0.05509621  0.46577218  0.47895750    -0.34100
N88         N  0.05549161  0.50488813  0.49473005    -0.28300
C89         C  0.03356041  0.51570345  0.50317699    -0.04400
C90         C  0.01856500  0.48186312  0.49221586     0.07800
C91         C  0.03282799  0.45064595  0.47701464     0.01600
H92         H  0.02886654  0.54636241  0.51601032     0.09200
H93         H  0.02738961  0.41971625  0.46494408     0.08300
N94         N  0.11759789  0.57720269  0.50738731    -0.35500
N95         N  0.13725977  0.56139250  0.49560813    -0.27700
C96         C  0.15465245  0.59121787  0.50215257    -0.02900
C97         C  0.14560920  0.62799756  0.51881081     0.05700
C98         C  0.12194189  0.61776834  0.52155376     0.03800
H99         H  0.17260425  0.58631531  0.49520317     0.08900
H100        H  0.10859574  0.63858818  0.53230438     0.07700
N101        N  0.87269781  0.41310466  0.48594048    -0.26700
N102        N  0.89227495  0.39278098  0.47707450    -0.34500
C103        C  0.88704389  0.35175815  0.46393796     0.01700
C104        C  0.86298890  0.34585052  0.46457175     0.07700
C105        C  0.85452999  0.38538291  0.47883706    -0.05400
H106        H  0.89987096  0.32782953  0.45492699     0.08300
H107        H  0.83641472  0.39380063  0.48325036     0.09500
Cu108      Cu  0.92519511  0.42211460  0.48312746     0.44200
Cu109      Cu  0.87136065  0.47844614  0.50651124     0.42000
Cu110      Cu  0.92622282  0.53828421  0.51702416     0.43900
N111        N  0.95568201  0.45932281  0.49178277    -0.34100
N112        N  0.95610563  0.50108435  0.50443747    -0.28300
C113        C  0.97850240  0.51509910  0.50689723    -0.04400
C114        C  0.99283211  0.48074773  0.49505722     0.07800
C115        C  0.97775313  0.44592651  0.48568176     0.01600
H116        H  0.98391655  0.54822235  0.51620767     0.09200
H117        H  0.98243874  0.41328863  0.47508536     0.08300
N118        N  0.89388408  0.56772566  0.52801895    -0.35500
N119        N  0.87385952  0.54518006  0.52494151    -0.27700
C120        C  0.85634983  0.57240253  0.53510202    -0.02900
C121        C  0.86570703  0.61434400  0.54491406     0.05700
C122        C  0.88956143  0.61015520  0.53983290     0.03800
H123        H  0.83809735  0.56254096  0.53502940     0.08900
H124        H  0.90286823  0.63572505  0.54500602     0.07700
N125        N  0.70231581  0.07164642  0.13807343    -0.02900
C126        C  0.70563883  0.05947776  0.16769579    -0.00300
C127        C  0.71097148  0.01256375  0.17011050    -0.23200
C128        C  0.71121095  0.99526524  0.14111888    -0.23400
C129        C  0.70578589  0.03199763  0.12180480    -0.00400
H130        H  0.71521532  0.99342325  0.19069906     0.13400
H131        H  0.71532822  0.95980398  0.13472695     0.13400
N132        N  0.71218630  0.92760702  0.88125955    -0.02900
C133        C  0.71669567  0.93767467  0.85162945    -0.00300
C134        C  0.72100751  0.98478488  0.84796803    -0.23200
C135        C  0.71915001  0.00450713  0.87615991    -0.23400
C136        C  0.71372505  0.96889064  0.89626608    -0.00400
H137        H  0.72561937  0.00268294  0.82709663     0.13400
H138        H  0.72167895  0.04095963  0.88148868     0.13400
N139        N  0.78711539  0.89780733  0.63420061    -0.02900
C140        C  0.78056789  0.90828264  0.66305930    -0.00300
C141        C  0.77761440  0.95584204  0.66622443    -0.23200
C142        C  0.78268956  0.97566729  0.63867896    -0.23400
C143        C  0.78864782  0.93959534  0.61952384    -0.00400
H144        H  0.77161543  0.97397203  0.68626032     0.13400
H145        H  0.78128532  0.01231615  0.63288747     0.13400
N146        N  0.76204088  0.08279007  0.39127380    -0.02900
C147        C  0.74576882  0.08052929  0.36882386    -0.00300
C148        C  0.73284644  0.04004761  0.37152235    -0.23200
C149        C  0.74126751  0.01671819  0.39662948    -0.23400
C150        C  0.75912262  0.04364750  0.40842260    -0.00400
H151        H  0.71906382  0.02836673  0.35647084     0.13400
H152        H  0.73477583  0.98401797  0.40564719     0.13400
C153        C  0.80475425  0.00041430  0.54641937    -0.27000
C154        C  0.78935138  0.97907262  0.52592621     0.02600
C155        C  0.77654898  0.93956095  0.53553800     0.30700
C156        C  0.77819104  0.92382818  0.56568097    -0.18800
C157        C  0.79242336  0.94713077  0.58662389    -0.28200
C158        C  0.80646904  0.98448335  0.57649610     0.44700
C159        C  0.78559701  0.99935492  0.49512694     0.05900
O160        O  0.76130083  0.91777701  0.51613563    -0.56700
H161        H  0.76693728  0.89570183  0.57318709     0.18800
O162        O  0.82106060  0.00717671  0.59629251    -0.63400
H163        H  0.81500889  0.03026228  0.53927911     0.17300
C164        C  0.77749185  0.04558166  0.49113671     0.29500
C165        C  0.77047174  0.06134203  0.46220404    -0.24300
C166        C  0.77141496  0.03141835  0.43710760    -0.23600
C167        C  0.78110722  0.98656516  0.44079706     0.41000
C168        C  0.78817336  0.97091791  0.46957497    -0.26100
O169        O  0.77519597  0.07474745  0.51555465    -0.58000
H170        H  0.76297478  0.09589449  0.45975889     0.16600
O171        O  0.78354513  0.95763602  0.41628077    -0.59400
H172        H  0.79491232  0.93576417  0.47213431     0.15100
H173        H  0.83535192  0.98760439  0.59742435     0.46900
H174        H  0.75949547  0.06799785  0.52400865     0.42300
H175        H  0.77098516  0.93402557  0.41840018     0.45800
H176        H  0.74642929  0.93540897  0.51779967     0.37200
C177        C  0.74468665  0.84972139  0.79990880    -0.27000
C178        C  0.73648536  0.86624655  0.77160488     0.02600
C179        C  0.71741971  0.89760332  0.77113249     0.30700
C180        C  0.70888503  0.91586534  0.79832083    -0.18800
C181        C  0.71931040  0.90426492  0.82625010    -0.28200
C182        C  0.73632915  0.86872602  0.82717532     0.44700
C183        C  0.75075850  0.85959481  0.74359044     0.05900
O184        O  0.70866283  0.91467461  0.74419206    -0.56700
H185        H  0.69563234  0.94290282  0.79730131     0.18800
O186        O  0.74707489  0.85681592  0.85403379    -0.63400
H187        H  0.75912242  0.82523550  0.80078956     0.17300
C188        C  0.77438294  0.87393769  0.74331758     0.29500
C189        C  0.78587739  0.88129359  0.71566118    -0.24300
C190        C  0.77403101  0.87605901  0.68793254    -0.23600
C191        C  0.75142848  0.85668431  0.68806706     0.41000
C192        C  0.73998031  0.84831120  0.71579859    -0.26100
O193        O  0.78555360  0.88636008  0.76970935    -0.58000
H194        H  0.80307011  0.89717883  0.71595568     0.16600
O195        O  0.73910634  0.85269092  0.66142242    -0.59400
H196        H  0.72189211  0.83712990  0.71546266     0.15100
H197        H  0.73948271  0.82733945  0.86055186     0.46900
H198        H  0.78101273  0.91930115  0.77325838     0.42300
H199        H  0.73897544  0.81883524  0.65696745     0.45800
H200        H  0.71802184  0.94298678  0.73967207     0.37200
C201        C  0.73038762  0.14361209  0.22502571    -0.27000
C202        C  0.71953346  0.12710798  0.25165240     0.02600
C203        C  0.70074920  0.09544337  0.24892004     0.30700
C204        C  0.69456961  0.07782656  0.22048517    -0.18800
C205        C  0.70684863  0.09089450  0.19428679    -0.28200
C206        C  0.72409007  0.12579339  0.19640675     0.44700
C207        C  0.73020122  0.13481266  0.28218319     0.05900
O208        O  0.68975590  0.07790014  0.27421031    -0.56700
H209        H  0.68139057  0.05075383  0.21924490     0.18800
O210        O  0.73676155  0.13856124  0.17131073    -0.63400
H211        H  0.74485465  0.16783887  0.22663268     0.17300
C212        C  0.75298622  0.11807814  0.28838424     0.29500
C213        C  0.75955891  0.10701193  0.31834537    -0.24300
C214        C  0.74352508  0.11179005  0.34213813    -0.23600
C215        C  0.72213733  0.13459077  0.33652156     0.41000
C216        C  0.71575582  0.14671635  0.30672968    -0.26100
O217        O  0.76790219  0.10709434  0.26513382    -0.58000
H218        H  0.77605938  0.08935122  0.32237751     0.16600
O219        O  0.70615126  0.13971195  0.35942287    -0.59400
H220        H  0.69834033  0.16024947  0.30247675     0.15100
H221        H  0.72982671  0.16856837  0.16445004     0.46900
H222        H  0.76451062  0.07405928  0.26020053     0.42300
H223        H  0.70923990  0.17104831  0.36793347     0.45800
H224        H  0.69955499  0.05123542  0.28108177     0.37200
C225        C  0.68687312  0.02920755  0.03847374    -0.27000
C226        C  0.70618457  0.00669386  0.02527064     0.02600
C227        C  0.72529771  0.99422476  0.04396942     0.30700
C228        C  0.72508045  0.00467921  0.07490558    -0.18800
C229        C  0.70589528  0.02714864  0.08820200    -0.28200
C230        C  0.68660054  0.03937969  0.06977081     0.44700
C231        C  0.70701026  0.99740595  0.99199148     0.05900
O232        O  0.74423701  0.97107192  0.03231104    -0.56700
H233        H  0.73992949  0.99437600  0.08879249     0.18800
O234        O  0.66692231  0.05848911  0.08240205    -0.63400
H235        H  0.67200443  0.03904525  0.02451752     0.17300
C236        C  0.68920336  0.97267673  0.97668918     0.29500
C237        C  0.69152314  0.96244919  0.94556014    -0.24300
C238        C  0.71149884  0.97656789  0.92946071    -0.23600
C239        C  0.72918224  0.00119795  0.94487126     0.41000
C240        C  0.72671529  0.01190825  0.97557189    -0.26100
O241        O  0.67002198  0.95671924  0.99221280    -0.58000
H242        H  0.67766821  0.94382603  0.93399446     0.16600
O243        O  0.74920497  0.01459754  0.93013137    -0.59400
H244        H  0.74049849  0.03129460  0.98675866     0.15100
H245        H  0.66585877  0.09058111  0.07393702     0.46900
H246        H  0.65694913  0.97734253  0.98577816     0.42300
H247        H  0.75970744  0.98706829  0.93127792     0.45800
H248        H  0.73938682  0.93792317  0.03115522     0.37200
C249        C  0.84118962  0.24664641  0.41470537    -0.27000
C250        C  0.82087613  0.23293835  0.43017236     0.02600
C251        C  0.81506173  0.25520349  0.45759935     0.30700
C252        C  0.82897965  0.29175123  0.46849665    -0.18800
C253        C  0.84904415  0.30620324  0.45273522    -0.28200
C254        C  0.85521355  0.28294524  0.42573477     0.44700
C255        C  0.80595110  0.19519077  0.41768743     0.05900
O256        O  0.79649597  0.23979375  0.47462740    -0.56700
H257        H  0.82423521  0.30837101  0.48965292     0.18800
O258        O  0.87456624  0.29607230  0.40949938    -0.63400
H259        H  0.84597082  0.22966211  0.39368236     0.17300
C260        C  0.78198675  0.20270472  0.41181019     0.29500
C261        C  0.76792804  0.16582330  0.40183045    -0.24300
C262        C  0.77737951  0.12122882  0.39770176    -0.23600
C263        C  0.80152684  0.11424426  0.40185712     0.41000
C264        C  0.81568014  0.15117085  0.41171469    -0.26100
O265        O  0.77239405  0.24633168  0.41492453    -0.58000
H266        H  0.74941034  0.17163953  0.39821601     0.16600
O267        O  0.81140153  0.07174597  0.39558819    -0.59400
H268        H  0.83418820  0.14514359  0.41536411     0.15100
H269        H  0.86894275  0.32042883  0.39511548     0.46900
H270        H  0.76039666  0.24328996  0.43105400     0.42300
H271        H  0.81676329  0.05906273  0.41544529     0.45800
H272        H  0.78526905  0.26617444  0.47515962     0.37200
C273        C  0.83209703  0.80976280  0.61102917    -0.27000
C274        C  0.81832457  0.77431656  0.59819726     0.02600
C275        C  0.79371536  0.77937112  0.59866809     0.30700
C276        C  0.78343164  0.81925220  0.61155973    -0.18800
C277        C  0.79736170  0.85477066  0.62379973    -0.28200
C278        C  0.82182000  0.84971219  0.62344637     0.44700
C279        C  0.82993733  0.73315265  0.58378235     0.05900
O280        O  0.77957639  0.74638756  0.58567174    -0.56700
H281        H  0.76462070  0.82328976  0.61098533     0.18800
O282        O  0.83586660  0.88464032  0.63425672    -0.63400
H283        H  0.85097965  0.80669475  0.61115402     0.17300
C284        C  0.84802215  0.73921774  0.56232497     0.29500
C285        C  0.85959832  0.70041839  0.55013057    -0.24300
C286        C  0.85309975  0.65481935  0.55825210    -0.23600
C287        C  0.83479286  0.64858485  0.57933630     0.41000
C288        C  0.82343855  0.68744741  0.59192234    -0.26100
O289        O  0.85437549  0.78304100  0.55281512    -0.58000
H290        H  0.87346523  0.70603622  0.53379468     0.16600
O291        O  0.82827109  0.60469438  0.58851678    -0.59400
H292        H  0.80981594  0.68182814  0.60859525     0.15100
H293        H  0.83669745  0.87939715  0.65653909     0.46900
H294        H  0.84437218  0.78971143  0.53483745     0.42300
H295        H  0.83985966  0.59548670  0.60428374     0.45800
H296        H  0.77976313  0.75348511  0.56356844     0.37200
C297        C  0.29679307  0.99769629  0.94233601    -0.27000
C298        C  0.28671314  0.97022753  0.96529252     0.02600
C299        C  0.27389682  0.93015767  0.95721828     0.30700
C300        C  0.27044349  0.91935432  0.92649925    -0.18800
C301        C  0.27954181  0.94817856  0.90357615    -0.28200
C302        C  0.29320844  0.98702863  0.91164461     0.44700
C303        C  0.28724237  0.98671496  0.99715875     0.05900
O304        O  0.26285974  0.90395940  0.97906895    -0.56700
H305        H  0.25939090  0.89007305  0.92060707     0.18800
O306        O  0.30286357  0.01503371  0.88961295    -0.63400
H307        H  0.30673259  0.02851449  0.94823842     0.17300
C308        C  0.29670559  0.95924044  0.02075789     0.29500
C309        C  0.29436649  0.97357067  0.05101825    -0.24300
C310        C  0.28252290  0.01504774  0.05825801    -0.23600
C311        C  0.27410367  0.04366856  0.03444439     0.41000
C312        C  0.27658314  0.02940656  0.00419502    -0.26100
O313        O  0.30832868  0.91856351  0.01436251    -0.58000
H314        H  0.30115988  0.95135235  0.06901885     0.16600
O315        O  0.26144063  0.08316227  0.04048069    -0.59400
H316        H  0.26907041  0.05071329  0.98620355     0.15100
H317        H  0.29323804  0.04384100  0.88936187     0.46900
H318        H  0.29853075  0.89317071  0.02290275     0.42300
H319        H  0.27100450  0.10943121  0.03261636     0.45800
H320        H  0.27122399  0.87363876  0.97946845     0.37200
C321        C  0.24402564  0.11381790  0.20415054    -0.27000
C322        C  0.26292638  0.14155080  0.21372125     0.02600
C323        C  0.28161438  0.14857242  0.19319264     0.30700
C324        C  0.28282359  0.12252473  0.16629992    -0.18800
C325        C  0.26470034  0.09185756  0.15821771    -0.28200
C326        C  0.24451764  0.09046140  0.17644431     0.44700
C327        C  0.26487259  0.15356401  0.24675976     0.05900
O328        O  0.29943325  0.17880192  0.19991648    -0.56700
H329        H  0.29851661  0.12477973  0.15271976     0.18800
O330        O  0.22559689  0.06390740  0.16830661    -0.63400
H331        H  0.22937448  0.10701833  0.21900455     0.17300
C332        C  0.24475615  0.16136199  0.26471559     0.29500
C333        C  0.24514164  0.15021187  0.29582254    -0.24300
C334        C  0.26589656  0.13472221  0.30975157    -0.23600
C335        C  0.28690492  0.13793991  0.29324428     0.41000
C336        C  0.28624029  0.14566523  0.26189640    -0.26100
O337        O  0.22405908  0.17516910  0.25161334    -0.58000
H338        H  0.22876585  0.14951423  0.30802672     0.16600
O339        O  0.30794040  0.12764826  0.30680433    -0.59400
H340        H  0.30224155  0.14026156  0.24937988     0.15100
H341        H  0.21595360  0.08450278  0.15508494     0.46900
H342        H  0.22556480  0.20935163  0.24870084     0.42300
H343        H  0.31267694  0.15674928  0.31720330     0.45800
H344        H  0.29433738  0.20932218  0.19147131     0.37200
C345        C  0.22827695  0.22511982  0.38451795    -0.27000
C346        C  0.20399885  0.21752927  0.38621025     0.02600
C347        C  0.19511355  0.17314164  0.37861912     0.30700
C348        C  0.21045184  0.13735615  0.37009813    -0.18800
C349        C  0.23459060  0.14525599  0.36844991    -0.28200
C350        C  0.24346947  0.18950709  0.37546360     0.44700
C351        C  0.18831734  0.25665094  0.39518921     0.05900
O352        O  0.17144814  0.16520600  0.37787967    -0.56700
H353        H  0.20351862  0.10335356  0.36441104     0.18800
O354        O  0.26708714  0.19754017  0.37482446    -0.63400
H355        H  0.23552590  0.25875272  0.39047560     0.17300
C356        C  0.17109581  0.25111776  0.41787138     0.29500
C357        C  0.15673213  0.28870877  0.42577926    -0.24300
C358        C  0.15998871  0.33286966  0.41258808    -0.23600
C359        C  0.17741914  0.33880808  0.39039370     0.41000
C360        C  0.19122037  0.30083282  0.38163292    -0.26100
O361        O  0.16878828  0.20980750  0.43344721    -0.58000
H362        H  0.14372890  0.28386821  0.44337725     0.16600
O363        O  0.18114240  0.38158642  0.37715069    -0.59400
H364        H  0.20435547  0.30600373  0.36424473     0.15100
H365        H  0.27012127  0.21163320  0.35457071     0.46900
H366        H  0.18057407  0.21114952  0.45001481     0.42300
H367        H  0.17000296  0.38319571  0.35984192     0.45800
H368        H  0.16848696  0.14079890  0.39348785     0.37200
C369        C  0.27362986  0.86336990  0.69469210    -0.27000
C370        C  0.25315718  0.84756700  0.70909239     0.02600
C371        C  0.23291463  0.84106119  0.69086428     0.30700
C372        C  0.23248100  0.85722840  0.66062342    -0.18800
C373        C  0.25240948  0.87765357  0.64770442    -0.28200
C374        C  0.27352950  0.87664339  0.66418150     0.44700
C375        C  0.25232273  0.84737814  0.74321829     0.05900
O376        O  0.21295816  0.82209654  0.70288210    -0.56700
H377        H  0.21608355  0.85703667  0.64824451     0.18800
O378        O  0.29377713  0.89346382  0.65158718    -0.63400
H379        H  0.28947899  0.86969327  0.70746027     0.17300
C380        C  0.27244456  0.83760435  0.76115379     0.29500
C381        C  0.27406771  0.85441961  0.79099433    -0.24300
C382        C  0.25532327  0.87860003  0.80398440    -0.23600
C383        C  0.23391696  0.88066631  0.78809468     0.41000
C384        C  0.23271034  0.86651126  0.75783808    -0.26100
O385        O  0.29137422  0.81499426  0.74908294    -0.58000
H386        H  0.29058869  0.85162649  0.80296873     0.16600
O387        O  0.21460639  0.90086279  0.80097250    -0.59400
H388        H  0.21692588  0.87480328  0.74532978     0.15100
H389        H  0.30133392  0.86599869  0.64216930     0.46900
H390        H  0.28691873  0.78160250  0.74865142     0.42300
H391        H  0.20763155  0.87609169  0.81388925     0.45800
H392        H  0.21382809  0.78840654  0.69807113     0.37200
C393        C  0.23793398  0.95326989  0.49559620    -0.27000
C394        C  0.22440947  0.99372417  0.49119765     0.02600
C395        C  0.21191045  0.01235615  0.51576781     0.30700
C396        C  0.21490576  0.99313331  0.54488128    -0.18800
C397        C  0.22997155  0.95507012  0.54955062    -0.28200
C398        C  0.24063283  0.93370707  0.52455441     0.44700
C399        C  0.22595719  0.01833010  0.46165786     0.05900
O400        O  0.19709918  0.04956299  0.51148610    -0.56700
H401        H  0.20649512  0.00952304  0.56410422     0.18800
O402        O  0.25574914  0.89701231  0.52867791    -0.63400
H403        H  0.24767035  0.93857783  0.47684716     0.17300
C404        C  0.23609119  0.06314402  0.45965810     0.29500
C405        C  0.24280639  0.08108192  0.43131408    -0.24300
C406        C  0.23988033  0.05438758  0.40502302    -0.23600
C407        C  0.22815892  0.01135814  0.40678288     0.41000
C408        C  0.22130053  0.99358259  0.43496188    -0.26100
O409        O  0.24128399  0.08791933  0.48538857    -0.58000
H410        H  0.25198418  0.11409568  0.43020534     0.16600
O411        O  0.22468713  0.98504412  0.38123982    -0.59400
H412        H  0.21357461  0.95912679  0.43619230     0.15100
H413        H  0.24657523  0.86886185  0.52337193     0.46900
H414        H  0.25741439  0.07844602  0.49106604     0.42300
H415        H  0.21021104  0.99765776  0.37181766     0.45800
H416        H  0.20427556  0.07593647  0.52261653     0.37200
C417        C  0.16383411  0.73369810  0.56574753    -0.27000
C418        C  0.18506275  0.74610738  0.55198689     0.02600
C419        C  0.19303744  0.71995934  0.52709623     0.30700
C420        C  0.17993441  0.68210398  0.51648539    -0.18800
C421        C  0.15869009  0.66932148  0.53030801    -0.28200
C422        C  0.15072552  0.69576044  0.55524619     0.44700
C423        C  0.19855505  0.78663056  0.56362863     0.05900
O424        O  0.21354763  0.73129716  0.51278110    -0.56700
H425        H  0.18642349  0.66304112  0.49709842     0.18800
O426        O  0.13044521  0.68451328  0.57007626    -0.63400
H427        H  0.15755206  0.75309886  0.58513878     0.17300
C428        C  0.18807735  0.83095323  0.56577750     0.29500
C429        C  0.20096020  0.86881506  0.57674789    -0.24300
C430        C  0.22433430  0.86342631  0.58596707    -0.23600
C431        C  0.23485430  0.81912743  0.58397765     0.41000
C432        C  0.22199993  0.78115505  0.57275158    -0.26100
O433        O  0.16557130  0.83802380  0.55585162    -0.58000
H434        H  0.19270462  0.90276730  0.57793505     0.16600
O435        O  0.25801609  0.81333167  0.59127962    -0.57800
H436        H  0.23036001  0.74732883  0.57117512     0.15100
H437        H  0.13507017  0.66116257  0.58571351     0.46900
H438        H  0.15606300  0.84086310  0.57456606     0.42300
H439        H  0.25816306  0.79438813  0.61022126     0.45800
H440        H  0.20931440  0.75612239  0.49794077     0.37200
C441        C  0.64992446  0.76323956  0.94083119    -0.27000
C442        C  0.67294777  0.75937257  0.93035961     0.02600
C443        C  0.68452544  0.71619072  0.93273100     0.30700
C444        C  0.67268721  0.67713252  0.94430659    -0.18800
C445        C  0.64929200  0.68052323  0.95391544    -0.28200
C446        C  0.63813861  0.72449139  0.95272614     0.44700
C447        C  0.68432635  0.80070250  0.91653463     0.05900
O448        O  0.70729343  0.71169354  0.92348782    -0.56700
H449        H  0.68173247  0.64394633  0.94521247     0.18800
O450        O  0.61620655  0.73062561  0.96460306    -0.63400
H451        H  0.64106961  0.79667361  0.93995339     0.17300
C452        C  0.67473774  0.82162857  0.89029253     0.29500
C453        C  0.68437068  0.86281572  0.87873218    -0.24300
C454        C  0.70360492  0.88383377  0.89295120    -0.23600
C455        C  0.71386183  0.86196189  0.91848684     0.41000
C456        C  0.70417531  0.82055216  0.93014060    -0.26100
O457        O  0.65626946  0.80135218  0.87542279    -0.58000
H458        H  0.67653476  0.87899073  0.85883852     0.16600
O459        O  0.73380362  0.87986943  0.93131444    -0.59400
H460        H  0.71191692  0.80434361  0.95009394     0.15100
H461        H  0.60582406  0.73656409  0.94688100     0.46900
H462        H  0.64236370  0.82005460  0.88108443     0.42300
H463        H  0.72940055  0.88917758  0.95220204     0.45800
H464        H  0.70639859  0.70533877  0.90138590     0.37200
C465        C  0.68116844  0.28584523  0.08532695    -0.27000
C466        C  0.66931519  0.24302085  0.08454636     0.02600
C467        C  0.64753406  0.24069547  0.06964676     0.30700
C468        C  0.63762447  0.28083780  0.05658514    -0.18800
C469        C  0.64905865  0.32423435  0.05795331    -0.28200
C470        C  0.67119927  0.32625646  0.07237764     0.44700
C471        C  0.67921055  0.20100957  0.09996913     0.05900
O472        O  0.63565792  0.19924070  0.06792002    -0.56700
H473        H  0.62083669  0.27780985  0.04532763     0.18800
O474        O  0.68297095  0.36765733  0.07495566    -0.63400
H475        H  0.69790631  0.28826295  0.09682247     0.17300
C476        C  0.70049084  0.18098234  0.09056939     0.29500
C477        C  0.70824522  0.13888063  0.10363712    -0.24300
C478        C  0.69521771  0.11665672  0.12649081    -0.23600
C479        C  0.67434244  0.13746419  0.13656804     0.41000
C480        C  0.66650274  0.17924821  0.12335854    -0.26100
O481        O  0.71313181  0.20090104  0.06747464    -0.58000
H482        H  0.72428983  0.12309990  0.09566623     0.16600
O483        O  0.66097078  0.11618767  0.15843678    -0.59400
H484        H  0.65014377  0.19425824  0.13092481     0.15100
H485        H  0.67687524  0.38212644  0.09376130     0.46900
H486        H  0.72559423  0.21905390  0.07771400     0.42300
H487        H  0.65239821  0.09109085  0.14772086     0.45800
H488        H  0.64237971  0.18296805  0.05013672     0.37200
C489        C  0.28225940  0.77584618  0.87819478    -0.27000
C490        C  0.30550623  0.77787421  0.88861181     0.02600
C491        C  0.31756064  0.82064675  0.88694333     0.30700
C492        C  0.30637897  0.86038517  0.87529076    -0.18800
C493        C  0.28303033  0.85864496  0.86540473    -0.28200
C494        C  0.27100102  0.81585840  0.86675576     0.44700
C495        C  0.31717254  0.73547743  0.90117225     0.05900
O496        O  0.34015875  0.82418510  0.89722034    -0.56700
H497        H  0.31584199  0.89306736  0.87440251     0.18800
O498        O  0.24810602  0.81303634  0.85765493    -0.63400
H499        H  0.27278242  0.74317860  0.87906602     0.17300
C500        C  0.30785224  0.71101173  0.92622809     0.29500
C501        C  0.31982397  0.67237004  0.93845626    -0.24300
C502        C  0.34122402  0.65754865  0.92611606    -0.23600
C503        C  0.35013841  0.68136674  0.90048742     0.41000
C504        C  0.33821708  0.71998530  0.88838187    -0.26100
O505        O  0.28778240  0.72625675  0.93999620    -0.58000
H506        H  0.31266307  0.65486074  0.95822593     0.16600
O507        O  0.37038543  0.66700755  0.88680240    -0.59400
H508        H  0.34544097  0.73794923  0.86881170     0.15100
H509        H  0.23882701  0.82049734  0.87599722     0.46900
H510        H  0.27528649  0.70508245  0.93273183     0.42300
H511        H  0.36542088  0.64355073  0.87162216     0.45800
H512        H  0.33882364  0.83240510  0.91901533     0.37200
C513        C  0.31083177  0.26197562  0.04320186    -0.27000
C514        C  0.32042163  0.23597405  0.06729713     0.02600
C515        C  0.34116714  0.25149224  0.08126683     0.30700
C516        C  0.35221524  0.29199763  0.07072595    -0.18800
C517        C  0.34276335  0.31798857  0.04640320    -0.28200
C518        C  0.32181264  0.30253732  0.03266700     0.44700
C519        C  0.30902295  0.19203178  0.07707280     0.05900
O520        O  0.35078300  0.22732498  0.10526696    -0.56700
H521        H  0.36815285  0.30328204  0.08181682     0.18800
O522        O  0.31223192  0.32579356  0.00830591    -0.63400
H523        H  0.29503358  0.25012508  0.03199470     0.17300
C524        C  0.28539023  0.19130180  0.08601451     0.29500
C525        C  0.27497205  0.14924545  0.09485832    -0.24300
C526        C  0.28786461  0.10759502  0.09498688    -0.23600
C527        C  0.31144533  0.10825205  0.08606320     0.41000
C528        C  0.32187977  0.15029598  0.07722410    -0.26100
O529        O  0.27245674  0.23159541  0.08657773    -0.58000
H530        H  0.25683119  0.14899601  0.10185125     0.16600
O531        O  0.32466946  0.06833852  0.08746546    -0.59400
H532        H  0.34006961  0.15030737  0.07041234     0.15100
H533        H  0.31998899  0.31247869  0.99018225     0.46900
H534        H  0.27455136  0.24404549  0.10739765     0.42300
H535        H  0.32771198  0.05979252  0.06602892     0.45800
H536        H  0.34193980  0.23764410  0.12337898     0.37200
loop_ 
_geom_bond_atom_site_label_1 
_geom_bond_atom_site_label_2 
_geom_bond_distance 
_geom_bond_site_symmetry_2 
_ccdc_geom_bond_type 
N1            N2   1.322       .  A
N1            C5   1.347       .  A
N1           Cu9   2.076       .  S
N2            C3   1.345       .  A
N2           Cu8   2.087       .  S
C3            C4   1.388       .  A
C3            H6   1.081       .  S
C4            C5   1.387       .  A
C4          C502   1.488       .  S
C5            H7   1.082       .  S
Cu8          N11   2.086       .  S
Cu9          N19   2.075   1_556  S
Cu10         N12   2.082       .  S
Cu10         N18   2.082       .  S
N11          N12   1.323   1_556  A
N11          C15   1.348       .  A
N12          C13   1.347       .  A
C13          C14   1.385   1_554  A
C13          H16   1.082       .  S
C14          C15   1.386       .  A
C14          C38   1.478       .  S
C15          H17   1.082       .  S
N18          N19   1.322       .  A
N18          C22   1.346       .  A
N19          C20   1.345       .  A
C20          C21   1.386       .  A
C20          H23   1.081       .  S
C21          C22   1.387       .  A
C21         C517   1.485       .  S
C22          H24   1.082       .  S
N25          N26   1.323       .  A
N25          C29   1.347       .  A
N25         Cu33   2.090   1_556  S
N26          C27   1.343       .  A
N26         Cu32   2.074       .  S
C27          C28   1.386       .  A
C27          H30   1.081       .  S
C28          C29   1.388       .  A
C28         C445   1.488       .  S
C29          H31   1.082       .  S
Cu32         N35   2.073       .  S
Cu33         N43   2.090       .  S
Cu34         N36   2.089       .  S
Cu34         N42   2.089       .  S
N35          N36   1.322   1_556  A
N35          C39   1.347       .  A
N36          C37   1.347       .  A
C37          C38   1.386   1_554  A
C37          H40   1.082       .  S
C38          C39   1.385       .  A
C39          H41   1.082       .  S
N42          N43   1.322       .  A
N42          C46   1.346       .  A
N43          C44   1.350       .  A
C44          C45   1.392       .  A
C44          H47   1.081       .  S
C45          C46   1.390       .  A
C45         C469   1.497       .  S
C46          H48   1.082       .  S
N49          C53   1.357       .  A
N49          C50   1.360       .  A
N49         C430   1.444       .  S
C50          C51   1.387       .  A
C50         C373   1.482       .  S
C51          C52   1.367       .  A
C51          H54   1.082       .  S
C52          C53   1.377       .  A
C52          H55   1.082   1_565  S
C53         C397   1.469       .  S
N56          C60   1.354       .  A
N56          C57   1.359       .  A
N56         C349   1.438       .  S
C57          C58   1.388       .  A
C57         C334   1.487       .  S
C58          C59   1.370       .  A
C58          H61   1.082       .  S
C59          C60   1.378       .  A
C59          H62   1.082       .  S
C60         C406   1.473       .  S
N63          C67   1.360       .  A
N63          C64   1.359       .  A
N63         C526   1.437       .  S
C64          C65   1.385       .  A
C64         C325   1.491       .  S
C65          C66   1.373   1_545  A
C65          H68   1.082   1_545  S
C66          C67   1.381   1_565  A
C66          H69   1.082       .  S
C67         C310   1.486       .  S
N70          C74   1.360       .  A
N70          C71   1.361       .  A
N70         C493   1.444       .  S
C71          C72   1.386       .  A
C71         C382   1.485       .  S
C72          C73   1.370       .  A
C72          H75   1.082       .  S
C73          C74   1.379       .  A
C73          H76   1.082   1_565  S
C74         C301   1.479       .  S
N77          N78   1.323       .  A
N77          C81   1.345       .  A
N77         Cu85   2.073       .  S
N78          C79   1.346       .  A
N78         Cu84   2.087       .  S
C79          C80   1.385       .  A
C79          H82   1.082       .  S
C80          C81   1.383       .  A
C80         C358   1.478       .  S
C81          H83   1.082       .  S
Cu84         N87   2.087       .  S
Cu85         N95   2.073       .  S
Cu86         N88   2.079       .  S
Cu86         N94   2.080       .  S
N87          N88   1.323       .  A
N87          C91   1.348       .  A
N88          C89   1.346       .  A
C89          C90   1.384       .  A
C89          H92   1.082       .  S
C90          C91   1.387       .  A
C90         C114   1.478   1_455  S
C91          H93   1.082       .  S
N94          N95   1.321       .  A
N94          C98   1.346       .  A
N95          C96   1.344       .  A
C96          C97   1.388       .  A
C96          H99   1.081       .  S
C97          C98   1.391       .  A
C97         C421   1.492       .  S
C98         H100   1.080       .  S
N101        N102   1.323       .  A
N101        C105   1.346       .  A
N101       Cu109   2.087       .  S
N102        C103   1.347       .  A
N102       Cu108   2.080       .  S
C103        C104   1.387       .  A
C103        H106   1.082       .  S
C104        C105   1.386       .  A
C104        C253   1.485       .  S
C105        H107   1.082       .  S
Cu108       N111   2.080       .  S
Cu109       N119   2.088       .  S
Cu110       N112   2.091       .  S
Cu110       N118   2.091       .  S
N111        N112   1.324       .  A
N111        C115   1.347       .  A
N112        C113   1.347       .  A
C113        C114   1.386       .  A
C113        H116   1.082       .  S
C114        C115   1.384       .  A
C115        H117   1.082       .  S
N118        N119   1.323       .  A
N118        C122   1.349       .  A
N119        C120   1.348       .  A
C120        C121   1.387       .  A
C120        H123   1.082       .  S
C121        C122   1.388       .  A
C121        C286   1.490       .  S
C122        H124   1.082       .  S
N125        C129   1.362       .  A
N125        C126   1.359       .  A
N125        C478   1.442       .  S
C126        C127   1.382       .  A
C126        C205   1.482       .  S
C127        C128   1.371   1_545  A
C127        H130   1.083   1_545  S
C128        C129   1.383   1_565  A
C128        H131   1.082       .  S
C129        C229   1.485       .  S
N132        C136   1.362       .  A
N132        C133   1.359       .  A
N132        C454   1.440       .  S
C133        C134   1.382       .  A
C133        C181   1.483       .  S
C134        C135   1.371   1_565  A
C134        H137   1.082   1_565  S
C135        C136   1.383   1_545  A
C135        H138   1.082       .  S
C136        C238   1.484       .  S
N139        C143   1.360       .  A
N139        C140   1.360       .  A
N139        C277   1.443       .  S
C140        C141   1.382       .  A
C140        C190   1.477       .  S
C141        C142   1.367       .  A
C141        H144   1.083       .  S
C142        C143   1.381       .  A
C142        H145   1.082   1_565  S
C143        C157   1.478       .  S
N146        C150   1.359       .  A
N146        C147   1.356       .  A
N146        C262   1.438       .  S
C147        C148   1.381       .  A
C147        C214   1.477       .  S
C148        C149   1.373       .  A
C148        H151   1.082       .  S
C149        C150   1.382       .  A
C149        H152   1.082   1_545  S
C150        C166   1.482       .  S
C153        C154   1.402   1_545  A
C153        C158   1.400   1_545  A
C153        H163   1.083       .  S
C154        C155   1.413       .  A
C154        C159   1.486       .  S
C155        C156   1.401       .  A
C155        O160   1.372       .  S
C156        C157   1.400       .  A
C156        H161   1.083       .  S
C157        C158   1.410       .  A
C158        O162   1.372   1_565  S
C159        C164   1.413   1_565  A
C159        C168   1.401       .  A
O160        H176   0.992       .  S
O162        H173   0.992   1_545  S
C164        C165   1.405       .  A
C164        O169   1.372       .  S
C165        C166   1.404       .  A
C165        H170   1.083       .  S
C166        C167   1.408   1_545  A
C167        C168   1.398       .  A
C167        O171   1.372       .  S
C168        H172   1.084       .  S
O169        H174   0.992       .  S
O171        H175   0.992       .  S
C177        C178   1.408       .  A
C177        C182   1.406       .  A
C177        H187   1.083       .  S
C178        C179   1.412       .  A
C178        C183   1.494       .  S
C179        C180   1.398       .  A
C179        O184   1.372       .  S
C180        C181   1.402       .  A
C180        H185   1.084       .  S
C181        C182   1.408       .  A
C182        O186   1.371       .  S
C183        C188   1.413       .  A
C183        C192   1.407       .  A
O184        H200   0.992       .  S
O186        H197   0.992       .  S
C188        C189   1.400       .  A
C188        O193   1.372       .  S
C189        C190   1.402       .  A
C189        H194   1.084       .  S
C190        C191   1.407       .  A
C191        C192   1.406       .  A
C191        O195   1.371       .  S
C192        H196   1.083       .  S
O193        H198   0.993       .  S
O195        H199   0.991       .  S
C201        C202   1.407       .  A
C201        C206   1.407       .  A
C201        H211   1.083       .  S
C202        C203   1.413       .  A
C202        C207   1.491       .  S
C203        C204   1.396       .  A
C203        O208   1.373       .  S
C204        C205   1.401       .  A
C204        H209   1.084       .  S
C205        C206   1.409       .  A
C206        O210   1.371       .  S
C207        C212   1.413       .  A
C207        C216   1.405       .  A
O208        H224   0.992       .  S
O210        H221   0.992       .  S
C212        C213   1.403       .  A
C212        O217   1.372       .  S
C213        C214   1.401       .  A
C213        H218   1.084       .  S
C214        C215   1.406       .  A
C215        C216   1.401       .  A
C215        O219   1.371       .  S
C216        H220   1.084       .  S
O217        H222   0.992       .  S
O219        H223   0.991       .  S
C225        C226   1.407       .  A
C225        C230   1.409       .  A
C225        H235   1.083       .  S
C226        C227   1.410   1_545  A
C226        C231   1.490   1_544  S
C227        C228   1.395   1_565  A
C227        O232   1.372       .  S
C228        C229   1.403       .  A
C228        H233   1.084   1_545  S
C229        C230   1.410       .  A
C230        O234   1.372       .  S
C231        C236   1.413       .  A
C231        C240   1.403   1_565  A
O232        H248   0.992       .  S
O234        H245   0.992       .  S
C236        C237   1.409       .  A
C236        O241   1.372       .  S
C237        C238   1.405       .  A
C237        H242   1.083       .  S
C238        C239   1.408   1_565  A
C239        C240   1.394       .  A
C239        O243   1.372       .  S
C240        H244   1.084       .  S
O241        H246   0.992       .  S
O243        H247   0.992   1_545  S
C249        C250   1.404       .  A
C249        C254   1.403       .  A
C249        H259   1.084       .  S
C250        C251   1.409       .  A
C250        C255   1.486       .  S
C251        C252   1.402       .  A
C251        O256   1.373       .  S
C252        C253   1.404       .  A
C252        H257   1.083       .  S
C253        C254   1.411       .  A
C254        O258   1.371       .  S
C255        C260   1.410       .  A
C255        C264   1.405       .  A
O256        H272   0.992       .  S
O258        H269   0.992       .  S
C260        C261   1.401       .  A
C260        O265   1.373       .  S
C261        C262   1.401       .  A
C261        H266   1.083       .  S
C262        C263   1.406       .  A
C263        C264   1.403       .  A
C263        O267   1.372       .  S
C264        H268   1.083       .  S
O265        H270   0.992       .  S
O267        H271   0.991       .  S
C273        C274   1.406       .  A
C273        C278   1.401       .  A
C273        H283   1.083       .  S
C274        C275   1.415       .  A
C274        C279   1.499       .  S
C275        C276   1.408       .  A
C275        O280   1.371       .  S
C276        C277   1.403       .  A
C276        H281   1.082       .  S
C277        C278   1.406       .  A
C278        O282   1.371       .  S
C279        C284   1.413       .  A
C279        C288   1.407       .  A
O280        H296   0.992       .  S
O282        H293   0.992       .  S
C284        C285   1.404       .  A
C284        O289   1.371       .  S
C285        C286   1.404       .  A
C285        H290   1.083       .  S
C286        C287   1.412       .  A
C287        C288   1.406       .  A
C287        O291   1.372       .  S
C288        H292   1.083       .  S
O289        H294   0.992       .  S
O291        H295   0.992       .  S
C297        C298   1.402       .  A
C297        C302   1.401       .  A
C297        H307   1.084   1_565  S
C298        C299   1.410       .  A
C298        C303   1.482       .  S
C299        C300   1.402       .  A
C299        O304   1.372       .  S
C300        C301   1.401       .  A
C300        H305   1.084       .  S
C301        C302   1.408       .  A
C302        O306   1.372   1_565  S
C303        C308   1.405   1_556  A
C303        C312   1.403   1_566  A
O304        H320   0.992       .  S
O306        H317   0.992       .  S
C308        C309   1.402       .  A
C308        O313   1.373       .  S
C309        C310   1.407   1_565  A
C309        H314   1.084       .  S
C310        C311   1.409       .  A
C311        C312   1.402       .  A
C311        O315   1.371       .  S
C312        H316   1.084   1_554  S
O313        H318   0.992       .  S
O315        H319   0.992       .  S
C321        C322   1.407       .  A
C321        C326   1.395       .  A
C321        H331   1.081       .  S
C322        C323   1.415       .  A
C322        C327   1.499       .  S
C323        C324   1.405       .  A
C323        O328   1.371       .  S
C324        C325   1.406       .  A
C324        H329   1.082       .  S
C325        C326   1.408       .  A
C326        O330   1.372       .  S
C327        C332   1.416       .  A
C327        C336   1.407       .  A
O328        H344   0.991       .  S
O330        H341   0.992       .  S
C332        C333   1.403       .  A
C332        O337   1.371       .  S
C333        C334   1.404       .  A
C333        H338   1.081       .  S
C334        C335   1.409       .  A
C335        C336   1.395       .  A
C335        O339   1.372       .  S
C336        H340   1.081       .  S
O337        H342   0.991       .  S
O339        H343   0.992       .  S
C345        C346   1.408       .  A
C345        C350   1.400       .  A
C345        H355   1.083       .  S
C346        C347   1.412       .  A
C346        C351   1.491       .  S
C347        C348   1.403       .  A
C347        O352   1.373       .  S
C348        C349   1.401       .  A
C348        H353   1.083       .  S
C349        C350   1.403       .  A
C350        O354   1.371       .  S
C351        C356   1.413       .  A
C351        C360   1.407       .  A
O352        H368   0.992       .  S
O354        H365   0.992       .  S
C356        C357   1.401       .  A
C356        O361   1.371       .  S
C357        C358   1.402       .  A
C357        H362   1.084       .  S
C358        C359   1.407       .  A
C359        C360   1.401       .  A
C359        O363   1.371       .  S
C360        H364   1.083       .  S
O361        H366   0.992       .  S
O363        H367   0.992       .  S
C369        C370   1.407       .  A
C369        C374   1.393       .  A
C369        H379   1.081       .  S
C370        C371   1.419       .  A
C370        C375   1.502       .  S
C371        C372   1.406       .  A
C371        O376   1.371       .  S
C372        C373   1.402       .  A
C372        H377   1.083       .  S
C373        C374   1.407       .  A
C374        O378   1.372       .  S
C375        C380   1.419       .  A
C375        C384   1.407       .  A
O376        H392   0.991       .  S
O378        H389   0.991       .  S
C380        C381   1.404       .  A
C380        O385   1.371       .  S
C381        C382   1.401       .  A
C381        H386   1.083       .  S
C382        C383   1.408       .  A
C383        C384   1.395       .  A
C383        O387   1.372       .  S
C384        H388   1.081       .  S
O385        H390   0.991       .  S
O387        H391   0.992       .  S
C393        C394   1.405       .  A
C393        C398   1.396       .  A
C393        H403   1.084       .  S
C394        C395   1.406   1_565  A
C394        C399   1.477   1_565  S
C395        C396   1.401   1_545  A
C395        O400   1.373       .  S
C396        C397   1.403       .  A
C396        H401   1.084   1_565  S
C397        C398   1.403       .  A
C398        O402   1.371       .  S
C399        C404   1.412       .  A
C399        C408   1.401   1_545  A
O400        H416   0.992       .  S
O402        H413   0.992       .  S
C404        C405   1.401       .  A
C404        O409   1.372       .  S
C405        C406   1.401       .  A
C405        H410   1.084       .  S
C406        C407   1.406       .  A
C407        C408   1.395   1_545  A
C407        O411   1.371   1_545  S
C408        H412   1.084       .  S
O409        H414   0.992       .  S
O411        H415   0.991       .  S
C417        C418   1.404       .  A
C417        C422   1.402       .  A
C417        H427   1.083       .  S
C418        C419   1.408       .  A
C418        C423   1.488       .  S
C419        C420   1.401       .  A
C419        O424   1.372       .  S
C420        C421   1.408       .  A
C420        H425   1.082       .  S
C421        C422   1.414       .  A
C422        O426   1.370       .  S
C423        C428   1.408       .  A
C423        C432   1.406       .  A
O424        H440   0.992       .  S
O426        H437   0.992       .  S
C428        C429   1.400       .  A
C428        O433   1.372       .  S
C429        C430   1.404       .  A
C429        H434   1.083       .  S
C430        C431   1.408       .  A
C431        C432   1.406       .  A
C431        O435   1.371       .  S
C432        H436   1.083       .  S
O433        H438   0.992       .  S
O435        H439   0.992       .  S
C441        C442   1.401       .  A
C441        C446   1.400       .  A
C441        H451   1.084       .  S
C442        C443   1.406       .  A
C442        C447   1.481       .  S
C443        C444   1.403       .  A
C443        O448   1.372       .  S
C444        C445   1.408       .  A
C444        H449   1.083       .  S
C445        C446   1.413       .  A
C446        O450   1.372       .  S
C447        C452   1.407       .  A
C447        C456   1.404       .  A
O448        H464   0.991       .  S
O450        H461   0.992       .  S
C452        C453   1.397       .  A
C452        O457   1.372       .  S
C453        C454   1.402       .  A
C453        H458   1.083       .  S
C454        C455   1.409       .  A
C455        C456   1.405       .  A
C455        O459   1.372       .  S
C456        H460   1.083       .  S
O457        H462   0.992       .  S
O459        H463   0.992       .  S
C465        C466   1.404       .  A
C465        C470   1.407       .  A
C465        H475   1.083       .  S
C466        C467   1.407       .  A
C466        C471   1.489       .  S
C467        C468   1.401       .  A
C467        O472   1.372       .  S
C468        C469   1.408       .  A
C468        H473   1.082       .  S
C469        C470   1.416       .  A
C470        O474   1.370       .  S
C471        C476   1.409       .  A
C471        C480   1.405       .  A
O472        H488   0.992       .  S
O474        H485   0.992       .  S
C476        C477   1.404       .  A
C476        O481   1.371       .  S
C477        C478   1.403       .  A
C477        H482   1.083       .  S
C478        C479   1.408       .  A
C479        C480   1.400       .  A
C479        O483   1.371       .  S
C480        H484   1.084       .  S
O481        H486   0.992       .  S
O483        H487   0.992       .  S
C489        C490   1.406       .  A
C489        C494   1.404       .  A
C489        H499   1.083       .  S
C490        C491   1.409       .  A
C490        C495   1.488       .  S
C491        C492   1.399       .  A
C491        O496   1.372       .  S
C492        C493   1.404       .  A
C492        H497   1.083       .  S
C493        C494   1.408       .  A
C494        O498   1.370       .  S
C495        C500   1.409       .  A
C495        C504   1.403       .  A
O496        H512   0.992       .  S
O498        H509   0.992       .  S
C500        C501   1.405       .  A
C500        O505   1.372       .  S
C501        C502   1.407       .  A
C501        H506   1.083       .  S
C502        C503   1.411       .  A
C503        C504   1.401       .  A
C503        O507   1.371       .  S
C504        H508   1.084       .  S
O505        H510   0.992       .  S
O507        H511   0.992       .  S
C513        C514   1.402       .  A
C513        C518   1.399       .  A
C513        H523   1.084       .  S
C514        C515   1.408       .  A
C514        C519   1.481       .  S
C515        C516   1.400       .  A
C515        O520   1.372       .  S
C516        C517   1.406       .  A
C516        H521   1.083       .  S
C517        C518   1.413       .  A
C518        O522   1.371       .  S
C519        C524   1.409       .  A
C519        C528   1.404       .  A
O520        H536   0.992       .  S
O522        H533   0.992   1_554  S
C524        C525   1.399       .  A
C524        O529   1.371       .  S
C525        C526   1.403       .  A
C525        H530   1.083       .  S
C526        C527   1.406       .  A
C527        C528   1.399       .  A
C527        O531   1.372       .  S
C528        H532   1.083       .  S
O529        H534   0.992       .  S
O531        H535   0.992       .  S
