geometry optimzed in LAMMPS
_audit_creation_date              2020-11-30 
_audit_creation_method            'lammps2cif' 
_symmetry_space_group_name_H-M    'P1' 
_symmetry_Int_Tables_number       1 
_symmetry_cell_setting            triclinic 
loop_ 
_symmetry_equiv_pos_as_xyz 
  x,y,z 
_cell_length_a                    61.20001008 
_cell_length_b                    61.03863127553942 
_cell_length_c                    43.48008403396272 
_cell_angle_alpha                 89.97917136134102 
_cell_angle_beta                  90.01484790654486 
_cell_angle_gamma                 120.1239068524042 
loop_ 
_atom_site_label 
_atom_site_type_symbol 
_atom_site_fract_x 
_atom_site_fract_y 
_atom_site_fract_z 
_atom_site_charge 
N1          N  0.84734799  0.53029015  0.76473440    -0.27000
N2          N  0.83860891  0.51866946  0.73814353    -0.34800
C3          C  0.81602326  0.51646774  0.73263520     0.01400
C4          C  0.81002842  0.52695407  0.75708630     0.07400
C5          C  0.83036257  0.53560217  0.77704464    -0.05700
H6          H  0.80434834  0.50693328  0.71286945     0.08100
H7          H  0.83264438  0.54491978  0.79895483     0.09300
Cu8        Cu  0.85589788  0.50342385  0.71214652     0.44200
Cu9        Cu  0.88135211  0.53702927  0.78332804     0.42000
Cu10       Cu  0.91019497  0.50444409  0.74514334     0.43900
N11         N  0.87267899  0.48452261  0.69319641    -0.34400
N12         N  0.89241208  0.48448237  0.70541468    -0.28600
C13         C  0.89836034  0.47004771  0.68792013    -0.04700
C14         C  0.88142539  0.46040171  0.66356835     0.07500
C15         C  0.86547537  0.47012727  0.66773043     0.01300
H16         H  0.91380398  0.46673381  0.69272977     0.09000
H17         H  0.85000714  0.46742695  0.65313711     0.08000
N18         N  0.92508070  0.52727181  0.78380707    -0.35800
N19         N  0.91490557  0.53947522  0.79722170    -0.28000
C20         C  0.92953898  0.55294976  0.82100165    -0.03200
C21         C  0.94982541  0.54889731  0.82290005     0.05400
C22         C  0.94637181  0.53254899  0.79885515     0.03500
H23         H  0.92545592  0.56453686  0.83607849     0.08600
H24         H  0.95863398  0.52534514  0.79229322     0.07400
N25         N  0.84353541  0.29753169  0.45447708    -0.27000
N26         N  0.83078249  0.30286166  0.47476553    -0.34800
C27         C  0.80661720  0.28382491  0.47522618     0.01400
C28         C  0.80415602  0.26548654  0.45453255     0.07400
C29         C  0.82794497  0.27475838  0.44190177    -0.05700
H30         H  0.79205032  0.28317265  0.48995106     0.08100
H31         H  0.83340184  0.26582911  0.42440497     0.09300
Cu32       Cu  0.84734701  0.33522949  0.50189116     0.44200
Cu33       Cu  0.88128510  0.32203586  0.44379870     0.42000
Cu34       Cu  0.91489519  0.37852361  0.48982943     0.43900
N35         N  0.86903407  0.36767460  0.52778748    -0.34400
N36         N  0.89347192  0.38325411  0.52351254    -0.28600
C37         C  0.90172462  0.40210403  0.54423945    -0.04700
C38         C  0.88158616  0.39818854  0.56272038     0.07500
C39         C  0.86114978  0.37618078  0.55140807     0.01300
H40         H  0.92096047  0.41766986  0.54528475     0.09000
H41         H  0.84196189  0.36674669  0.55995984     0.08000
N42         N  0.93109141  0.37042092  0.45268976    -0.35800
N43         N  0.91840085  0.35007636  0.43531153    -0.28000
C44         C  0.93289256  0.35151522  0.41126627    -0.03200
C45         C  0.95593183  0.37368961  0.41375327     0.05400
C46         C  0.95419696  0.38513891  0.44041386     0.03500
H47         H  0.92686722  0.33773408  0.39292042     0.08600
H48         H  0.96813854  0.40349639  0.44923962     0.07400
N49         N  0.46108200  0.13430722  0.09639456    -0.27000
N50         N  0.47870977  0.14727887  0.11716975    -0.34800
C51         C  0.48339019  0.17130002  0.11754348     0.01400
C52         C  0.46770529  0.17346305  0.09632755     0.07400
C53         C  0.45381477  0.14963237  0.08334438    -0.05700
H54         H  0.49695038  0.18602192  0.13250074     0.08100
H55         H  0.43987234  0.14397557  0.06524747     0.09300
Cu56       Cu  0.49498260  0.13154215  0.14491603     0.44200
Cu57       Cu  0.44879919  0.09678673  0.08545965     0.42000
Cu58       Cu  0.47810202  0.06701155  0.12767400     0.43900
N59         N  0.50698977  0.11090656  0.17088880    -0.34400
N60         N  0.50077526  0.08731756  0.16452901    -0.28600
C61         C  0.51125361  0.07924851  0.18558174    -0.04700
C62         C  0.52471825  0.09864346  0.20649588     0.07500
C63         C  0.52157401  0.11845264  0.19623409     0.01300
H64         H  0.50943079  0.06069335  0.18514415     0.09000
H65         H  0.52906935  0.13696589  0.20658318     0.08000
N66         N  0.45425676  0.05045856  0.09035836    -0.35800
N67         N  0.44291689  0.06095421  0.07561907    -0.28000
C68         C  0.42873051  0.04542362  0.05282293    -0.03200
C69         C  0.43152549  0.02429235  0.05297470     0.05400
C70         C  0.44782739  0.02811225  0.07709896     0.03500
H71         H  0.41782114  0.04958477  0.03671959     0.08600
H72         H  0.45446834  0.01556484  0.08457940     0.07400
N73         N  0.68323066  0.13168820  0.42092345    -0.27000
N74         N  0.67953453  0.14410288  0.39846704    -0.34800
C75         C  0.69857662  0.16825359  0.39836872     0.01400
C76         C  0.71525606  0.17118624  0.42160759     0.07400
C77         C  0.70501028  0.14759537  0.43539006    -0.05700
H78         H  0.69994673  0.18274334  0.38283804     0.08100
H79         H  0.71214416  0.14271128  0.45545087     0.09300
Cu80       Cu  0.64812161  0.12851583  0.36993025     0.44200
Cu81       Cu  0.65661129  0.09485449  0.43359668     0.42000
Cu82       Cu  0.59625560  0.06864906  0.39343936     0.43900
N83         N  0.61430887  0.10992109  0.34591738    -0.34400
N84         N  0.59513900  0.08790205  0.35464201    -0.28600
C85         C  0.57603344  0.08083542  0.33455403    -0.04700
C86         C  0.58343369  0.09938739  0.31208520     0.07500
C87         C  0.60792032  0.11750599  0.32008842     0.01300
H88         H  0.55799032  0.06353380  0.33638693     0.09000
H89         H  0.62045029  0.13475989  0.30785420     0.08000
N90         N  0.60234423  0.05221752  0.43187751    -0.35800
N91         N  0.62442752  0.06106685  0.44577408    -0.28000
C92         C  0.62179401  0.04566827  0.46942178    -0.03200
C93         C  0.59681589  0.02633991  0.47061189     0.05400
C94         C  0.58507660  0.03119253  0.44650967     0.03500
H95         H  0.63680854  0.04877541  0.48512542     0.08600
H96         H  0.56541028  0.02010529  0.43988177     0.07400
N97         N  0.68053694  0.52719145  0.76172434    -0.27000
N98         N  0.67707569  0.51509130  0.78802956    -0.34800
C99         C  0.69753429  0.51308245  0.79409028     0.01400
C100        C  0.71477070  0.52445530  0.77034623     0.07400
C101        C  0.70329498  0.53332535  0.75034197    -0.05700
H102        H  0.69935730  0.50343263  0.81393557     0.08100
H103        H  0.71079901  0.54365576  0.72912433     0.09300
Cu104      Cu  0.64403545  0.50078074  0.81317276     0.44200
Cu105      Cu  0.65392107  0.53425727  0.74226357     0.42000
Cu106      Cu  0.59436303  0.51087445  0.78284453     0.43900
N107        N  0.60790578  0.48416828  0.83111618    -0.34400
N108        N  0.58957256  0.48731832  0.82000433    -0.28600
C109        C  0.56825154  0.47243521  0.83586155    -0.04700
C110        C  0.57337112  0.45915770  0.85798008     0.07500
C111        C  0.59885005  0.46739058  0.85429090     0.01300
H112        H  0.55024496  0.47103395  0.83112051     0.09000
H113        H  0.61028148  0.46181683  0.86739348     0.08000
N114        N  0.60421746  0.53327943  0.74345653    -0.35800
N115        N  0.62554740  0.54091523  0.72823998    -0.28000
C116        C  0.62589694  0.55411544  0.70333010    -0.03200
C117        C  0.60379916  0.55505061  0.70286658     0.05400
C118        C  0.59054670  0.54175265  0.72874257     0.03500
H119        H  0.64138826  0.56282361  0.68714902     0.08600
H120        H  0.57211913  0.53812625  0.73605664     0.07400
N121        N  0.45435170  0.29435558  0.06778259    -0.27000
N122        N  0.47048968  0.29915882  0.04505566    -0.34800
C123        C  0.47682055  0.28100905  0.04436449     0.01400
C124        C  0.46376302  0.26377260  0.06749583     0.07400
C125        C  0.44958253  0.27272303  0.08180501    -0.05700
H126        H  0.48964530  0.28018693  0.02790178     0.08100
H127        H  0.43717300  0.26444221  0.10136619     0.09300
Cu128      Cu  0.48222353  0.32961215  0.01526290     0.44200
Cu129      Cu  0.44109830  0.31856374  0.07953722     0.42000
Cu130      Cu  0.45770952  0.37208954  0.02883443     0.43900
N131        N  0.49000139  0.36028037  0.98732677    -0.34400
N132        N  0.48087592  0.37556129  0.99200739    -0.28600
C133        C  0.49033296  0.39395367  0.97059173    -0.04700
C134        C  0.50618672  0.39010280  0.95133498     0.07500
C135        C  0.50545226  0.36851765  0.96279226     0.01300
H136        H  0.48677785  0.40959849  0.97013621     0.09000
H137        H  0.51569550  0.35959835  0.95430659     0.08000
N138        N  0.43861700  0.36640932  0.07022490    -0.35800
N139        N  0.43322277  0.34723169  0.08888645    -0.28000
C140        C  0.42319719  0.35019585  0.11494201    -0.03200
C141        C  0.42195912  0.37215392  0.11258201     0.05400
C142        C  0.43183055  0.38192135  0.08383554     0.03500
H143        H  0.41752488  0.33742161  0.13439114     0.08600
H144        H  0.43496388  0.39958926  0.07409572     0.07400
N145        N  0.14122608  0.67036393  0.95636366    -0.27000
N146        N  0.15457522  0.66389625  0.97426953    -0.34800
C147        C  0.17884849  0.68266182  0.97402676     0.01400
C148        C  0.18078259  0.70200789  0.95553032     0.07400
C149        C  0.15659231  0.69357882  0.94472163    -0.05700
H150        H  0.19394352  0.68231455  0.98655246     0.08100
H151        H  0.15074329  0.70321301  0.92868526     0.09300
Cu152      Cu  0.13937522  0.63036355  0.99933762     0.44200
Cu153      Cu  0.10324914  0.64668034  0.94594448     0.42000
Cu154      Cu  0.07443773  0.58579538  0.98339080     0.43900
N155        N  0.11826033  0.59728805  0.02457420    -0.34400
N156        N  0.09422536  0.58113576  0.01879151    -0.28600
C157        C  0.08537041  0.56229120  0.03956122    -0.04700
C158        C  0.10475919  0.56672399  0.05962364     0.07500
C159        C  0.12539905  0.58907067  0.04923056     0.01300
H160        H  0.06627264  0.54640864  0.03964179     0.09000
H161        H  0.14411762  0.59892817  0.05918523     0.08000
N162        N  0.05748712  0.59454636  0.94817441    -0.35800
N163        N  0.06739844  0.61707959  0.93505749    -0.28000
C164        C  0.05171803  0.61615715  0.91269570    -0.03200
C165        C  0.03114468  0.59177993  0.91160804     0.05400
C166        C  0.03551137  0.57863835  0.93436570     0.03500
H167        H  0.05564583  0.63167421  0.89734048     0.08600
H168        H  0.02377404  0.55880725  0.94015748     0.07400
N169        N  0.14169670  0.44096797  0.26748448    -0.27000
N170        N  0.15119470  0.45359625  0.24167266    -0.34800
C171        C  0.17368545  0.45542198  0.23633776     0.01400
C172        C  0.17870269  0.44334489  0.26001745     0.07400
C173        C  0.15785833  0.43433721  0.27929093    -0.05700
H174        H  0.18559626  0.46511345  0.21680633     0.08100
H175        H  0.15432805  0.42338355  0.30013150     0.09300
Cu176      Cu  0.13289633  0.46767333  0.21532405     0.44200
Cu177      Cu  0.10716245  0.43357937  0.28512989     0.42000
Cu178      Cu  0.07208993  0.45743533  0.24173831     0.43900
N179        N  0.11263729  0.48176826  0.19323879    -0.34400
N180        N  0.09073758  0.47865173  0.20267353    -0.28600
C181        C  0.08379494  0.49148436  0.18354167    -0.04700
C182        C  0.10230007  0.50332603  0.16102377     0.07500
C183        C  0.12009943  0.49636726  0.16799174     0.01300
H184        H  0.06674604  0.49247989  0.18624736     0.09000
H185        H  0.13730853  0.50126320  0.15576089     0.08000
N186        N  0.05920453  0.43637500  0.28240375    -0.35800
N187        N  0.07224538  0.42830000  0.29828992    -0.28000
C188        C  0.05915828  0.41616915  0.32365723    -0.03200
C189        C  0.03666889  0.41644160  0.32385261     0.05400
C190        C  0.03731999  0.42930031  0.29721219     0.03500
H191        H  0.06545114  0.40743223  0.34042314     0.08600
H192        H  0.02308119  0.43359342  0.28940607     0.07400
N193        N  0.52554690  0.66970393  0.57044489    -0.27000
N194        N  0.50851533  0.66328184  0.54841578    -0.34800
C195        C  0.50133843  0.68075097  0.54673754     0.01400
C196        C  0.51472662  0.69924639  0.56849157     0.07400
C197        C  0.52989332  0.69162281  0.58314554    -0.05700
H198        H  0.48774902  0.68027584  0.53042728     0.08100
H199        H  0.54287711  0.70107656  0.60190427     0.09300
Cu200      Cu  0.49630049  0.63159426  0.52088772     0.44200
Cu201      Cu  0.54161724  0.64807130  0.58261516     0.42000
Cu202      Cu  0.52292040  0.59178355  0.53651941     0.43900
N203        N  0.48682528  0.59888197  0.49654021    -0.34400
N204        N  0.49640549  0.58417253  0.50239857    -0.28600
C205        C  0.48594435  0.56420898  0.48323925    -0.04700
C206        C  0.46889695  0.56639549  0.46425719     0.07500
C207        C  0.47013310  0.58878559  0.47337851     0.01300
H208        H  0.49018837  0.54901200  0.48356294     0.09000
H209        H  0.45994141  0.59742650  0.46389538     0.08000
N210        N  0.54717217  0.60210452  0.57382705    -0.35800
N211        N  0.55342542  0.62221607  0.59113008    -0.28000
C212        C  0.56682657  0.62182654  0.61542274    -0.03200
C213        C  0.56924117  0.60052255  0.61317764     0.05400
C214        C  0.55672441  0.58858031  0.58641541     0.03500
H215        H  0.57358599  0.63560317  0.63383013     0.08600
H216        H  0.55337316  0.57051585  0.57780876     0.07400
N217        N  0.30354016  0.43347218  0.26594762    -0.27000
N218        N  0.30522427  0.44242253  0.29403281    -0.34800
C219        C  0.28478570  0.44450521  0.29977058     0.01400
C220        C  0.26942358  0.43664999  0.27397420     0.07400
C221        C  0.28193140  0.42967113  0.25298897    -0.05700
H222        H  0.28188397  0.45217047  0.32078230     0.08100
H223        H  0.27593211  0.42242720  0.22997574     0.09300
Cu224      Cu  0.33630629  0.45391804  0.32220960     0.44200
Cu225      Cu  0.33131512  0.42777296  0.24659273     0.42000
Cu226      Cu  0.38714641  0.44584721  0.29377794     0.43900
N227        N  0.37129210  0.46950274  0.34312216    -0.34400
N228        N  0.39006992  0.46679451  0.33272893    -0.28600
C229        C  0.41079289  0.48117563  0.34976979    -0.04700
C230        C  0.40477449  0.49359771  0.37204570     0.07500
C231        C  0.37948809  0.48560695  0.36701231     0.01300
H232        H  0.42910278  0.48327515  0.34515016     0.09000
H233        H  0.36791409  0.49145143  0.37929296     0.08000
N234        N  0.38083509  0.42819875  0.25126980    -0.35800
N235        N  0.36103417  0.42249617  0.23370370    -0.28000
C236        C  0.36340112  0.41267382  0.20708056    -0.03200
C237        C  0.38562806  0.41190714  0.20797515     0.05400
C238        C  0.39617235  0.42190652  0.23639027     0.03500
H239        H  0.34974652  0.40627048  0.18856417     0.08600
H240        H  0.41401780  0.42505243  0.24534806     0.07400
N241        N  0.51562184  0.82832374  0.59055797    -0.27000
N242        N  0.49717535  0.81505117  0.61026729    -0.34800
C243        C  0.49204727  0.79093711  0.61041599     0.01400
C244        C  0.50822100  0.78892522  0.59005008     0.07400
C245        C  0.52305177  0.81297525  0.57794538    -0.05700
H246        H  0.47804924  0.77614536  0.62492671     0.08100
H247        H  0.53791638  0.81879895  0.56102043     0.09300
Cu248      Cu  0.48073495  0.83030663  0.63754803     0.44200
Cu249      Cu  0.52862318  0.86636117  0.58119838     0.42000
Cu250      Cu  0.49572562  0.89400114  0.62155236     0.43900
N251        N  0.46845676  0.84977571  0.66430526    -0.34400
N252        N  0.47362922  0.87310800  0.65839908    -0.28600
C253        C  0.46411574  0.88080136  0.68106994    -0.04700
C254        C  0.45241462  0.86132124  0.70232325     0.07500
C255        C  0.45562889  0.84196827  0.69084820     0.01300
H256        H  0.46606983  0.89940100  0.68223559     0.09000
H257        H  0.45014355  0.82393065  0.70150241     0.08000
N258        N  0.52200624  0.91216036  0.58690067    -0.35800
N259        N  0.53461184  0.90259884  0.57306653    -0.28000
C260        C  0.55049442  0.91949586  0.55238952    -0.03200
C261        C  0.54758157  0.94058811  0.55298982     0.05400
C262        C  0.52937623  0.93524625  0.57522040     0.03500
H263        H  0.56272600  0.91632615  0.53736246     0.08600
H264        H  0.52212627  0.94729029  0.58264846     0.07400
N265        N  0.30280385  0.83404924  0.91925590    -0.27000
N266        N  0.30759923  0.82098315  0.89884383    -0.34800
C267        C  0.28876196  0.79679197  0.89906855     0.01400
C268        C  0.27114051  0.79435934  0.92072556     0.07400
C269        C  0.28053029  0.81844257  0.93289789    -0.05700
H270        H  0.28821602  0.78202051  0.88477447     0.08100
H271        H  0.27243421  0.82391393  0.95138745     0.09300
Cu272      Cu  0.34024072  0.83577816  0.87312834     0.44200
Cu273      Cu  0.32874259  0.87145690  0.93025167     0.42000
Cu274      Cu  0.39127025  0.89659813  0.89481754     0.43900
N275        N  0.37436075  0.85363483  0.85037578    -0.34400
N276        N  0.39337713  0.87596752  0.85835583    -0.28600
C277        C  0.41233587  0.88282102  0.83812463    -0.04700
C278        C  0.40475653  0.86386292  0.81615222     0.07500
C279        C  0.38058799  0.84563257  0.82490693     0.01300
H280        H  0.43007638  0.90046600  0.83930635     0.09000
H281        H  0.36793230  0.82823385  0.81299156     0.08000
N282        N  0.38310223  0.91421826  0.92998780    -0.35800
N283        N  0.36043622  0.90567749  0.94215482    -0.28000
C284        C  0.36205888  0.92158484  0.96461610    -0.03200
C285        C  0.38694849  0.94100243  0.96679018     0.05400
C286        C  0.39969564  0.93563159  0.94446840     0.03500
H287        H  0.34642332  0.91856305  0.97913063     0.08600
H288        H  0.41965859  0.94641696  0.93917651     0.07400
C289        C  0.41114929  0.84023111  0.77364369    -0.21000
C290        C  0.41817017  0.86348671  0.78794867    -0.09000
C291        C  0.43692962  0.88597224  0.77408200     0.29800
C292        C  0.44797488  0.88504215  0.74636640    -0.21000
C293        C  0.44065947  0.86180422  0.73187795    -0.09000
C294        C  0.42212853  0.83931182  0.74591451     0.29800
F295        F  0.41381857  0.81642197  0.73245262    -0.19600
H296        H  0.39690665  0.82258222  0.78376139     0.18200
H297        H  0.46232436  0.90264613  0.73626831     0.18200
F298        F  0.44406300  0.90898415  0.78646446    -0.19600
C299        C  0.53332274  0.76728250  0.58560919    -0.21000
C300        C  0.50989217  0.76611379  0.58393496    -0.09000
C301        C  0.48806846  0.74289996  0.57739382     0.29800
C302        C  0.48982326  0.72124920  0.57215356    -0.21000
C303        C  0.51321436  0.72227340  0.57428818    -0.09000
C304        C  0.53498306  0.74546740  0.58130919     0.29800
F305        F  0.55794700  0.74723769  0.58319792    -0.19600
H306        H  0.55027208  0.78502366  0.59084352     0.18200
H307        H  0.47283067  0.70357641  0.56684226     0.18200
F308        F  0.46516650  0.74129306  0.57542093    -0.19600
C309        C  0.45934816  0.53129502  0.42723029    -0.21000
C310        C  0.45275779  0.54836042  0.43998175    -0.09000
C311        C  0.43048518  0.54746173  0.42972087     0.29800
C312        C  0.41529557  0.52984152  0.40749556    -0.21000
C313        C  0.42172809  0.51258831  0.39499643    -0.09000
C314        C  0.44408799  0.51360087  0.40505560     0.29800
F315        F  0.45095487  0.49706363  0.39433493    -0.19600
H316        H  0.47639801  0.53153488  0.43441786     0.18200
H317        H  0.39837957  0.52978990  0.40013475     0.18200
F318        F  0.42272341  0.56292263  0.44171761    -0.19600
C319        C  0.23110844  0.43549706  0.29568457    -0.21000
C320        C  0.24561828  0.43716585  0.26981960    -0.09000
C321        C  0.23766913  0.44042669  0.24064655     0.29800
C322        C  0.21585596  0.44223147  0.23769489    -0.21000
C323        C  0.20144216  0.44075308  0.26362390    -0.09000
C324        C  0.20931459  0.43727438  0.29274763     0.29800
F325        F  0.19663560  0.43654488  0.31866016    -0.19600
H326        H  0.23669751  0.43293903  0.31841509     0.18200
H327        H  0.21029059  0.44482361  0.21497159     0.18200
F328        F  0.25138488  0.44288616  0.21504432    -0.19600
C329        C  0.22599984  0.72536250  0.93983684    -0.21000
C330        C  0.20396806  0.72581027  0.94744559    -0.09000
C331        C  0.20426804  0.74898856  0.94687848     0.29800
C332        C  0.22632162  0.77131843  0.93869700    -0.21000
C333        C  0.24817861  0.77077275  0.93022548    -0.09000
C334        C  0.24785224  0.74754015  0.93095337     0.29800
F335        F  0.26878658  0.74628933  0.92381648    -0.19600
H336        H  0.22614001  0.70768107  0.94021859     0.18200
H337        H  0.22618332  0.78899823  0.93843853     0.18200
F338        F  0.18342694  0.75012303  0.95488490    -0.19600
C339        C  0.12605943  0.55129354  0.09534584    -0.21000
C340        C  0.10391066  0.55083688  0.08599467    -0.09000
C341        C  0.08132180  0.53515621  0.10203056     0.29800
C342        C  0.08098577  0.51991591  0.12634810    -0.21000
C343        C  0.10309894  0.51999220  0.13538837    -0.09000
C344        C  0.12579710  0.53621773  0.11968967     0.29800
F345        F  0.14805392  0.53818722  0.12801424    -0.19600
H346        H  0.14374189  0.56322094  0.08358467     0.18200
H347        H  0.06325349  0.50791579  0.13793942     0.18200
F348        F  0.05964214  0.53495305  0.09486980    -0.19600
C349        C  0.41808667  0.38081771  0.16774370    -0.21000
C350        C  0.41346720  0.38333628  0.13667072    -0.09000
C351        C  0.40023847  0.39593223  0.12917831     0.29800
C352        C  0.39128146  0.40519261  0.15249581    -0.21000
C353        C  0.39580739  0.40256353  0.18360165    -0.09000
C354        C  0.40958625  0.39050591  0.19101340     0.29800
F355        F  0.41403684  0.38715972  0.22073379    -0.19600
H356        H  0.42837409  0.37133058  0.17407144     0.18200
H357        H  0.38083972  0.41452208  0.14619003     0.18200
F358        F  0.39511526  0.39846307  0.09944603    -0.19600
C359        C  0.59311068  0.57874112  0.62688705    -0.21000
C360        C  0.57949106  0.59041752  0.63633970    -0.09000
C361        C  0.57447847  0.59093678  0.66780078     0.29800
C362        C  0.58245454  0.57937989  0.68927218    -0.21000
C363        C  0.59603068  0.56764049  0.67986400    -0.09000
C364        C  0.60162698  0.56770820  0.64845019     0.29800
F365        F  0.61436145  0.55620136  0.63838427    -0.19600
H366        H  0.59705608  0.57807806  0.60273348     0.18200
H367        H  0.57802860  0.57963130  0.71333297     0.18200
F368        F  0.56084493  0.60153565  0.67768564    -0.19600
C369        C  0.53299981  0.44002495  0.88814515    -0.21000
C370        C  0.55555249  0.44043610  0.88067844    -0.09000
C371        C  0.56080169  0.42297461  0.89536506     0.29800
C372        C  0.54448182  0.40651599  0.91782337    -0.21000
C373        C  0.52241728  0.40675605  0.92608215    -0.09000
C374        C  0.51654951  0.42336579  0.91043844     0.29800
F375        F  0.49477501  0.42336550  0.91623518    -0.19600
H376        H  0.52815021  0.45291276  0.87707808     0.18200
H377        H  0.54949330  0.39384174  0.92913805     0.18200
F378        F  0.58144473  0.42133327  0.88790547    -0.19600
C379        C  0.55993386  0.99647110  0.50263838    -0.21000
C380        C  0.58484742  0.00520594  0.49291332    -0.09000
C381        C  0.59768779  0.99307720  0.50391974     0.29800
C382        C  0.58548766  0.97218983  0.52359902    -0.21000
C383        C  0.56051140  0.96335372  0.53318503    -0.09000
C384        C  0.54791725  0.97594034  0.52282211     0.29800
F385        F  0.52364908  0.96781511  0.53108015    -0.19600
H386        H  0.54970449  0.00558111  0.49456775     0.18200
H387        H  0.59560562  0.96287785  0.53135308     0.18200
F388        F  0.62162899  0.00068326  0.49467716    -0.19600
C389        C  0.42316572  0.97199254  0.99890802    -0.21000
C390        C  0.39804779  0.96212835  0.98917693    -0.09000
C391        C  0.38400653  0.97280513  0.00080381     0.29800
C392        C  0.39507746  0.99309283  0.02145199    -0.21000
C393        C  0.42008469  0.00273808  0.03134917    -0.09000
C394        C  0.43406222  0.99195799  0.01996818     0.29800
F395        F  0.45852040  0.00125915  0.02834170    -0.19600
H396        H  0.43438485  0.96409954  0.99040709     0.18200
H397        H  0.38401423  0.00117839  0.02992637     0.18200
F398        F  0.35986962  0.96422534  0.99157034    -0.19600
C399        C  0.48887606  0.21993270  0.08640866    -0.21000
C400        C  0.46648560  0.19646298  0.08888985    -0.09000
C401        C  0.44315162  0.19531420  0.08451480     0.29800
C402        C  0.44235143  0.21740487  0.07822923    -0.21000
C403        C  0.46477442  0.24074666  0.07514492    -0.09000
C404        C  0.48809062  0.24185077  0.07910423     0.29800
F405        F  0.51007149  0.26422934  0.07664871    -0.19600
H406        H  0.50703197  0.22121549  0.08966065     0.18200
H407        H  0.42422437  0.21623398  0.07520386     0.18200
F408        F  0.42113494  0.17298965  0.08710500    -0.19600
C409        C  0.54933258  0.07635412  0.27306456    -0.21000
C410        C  0.56845801  0.09940070  0.28516327    -0.09000
C411        C  0.57282232  0.12214010  0.27140865     0.29800
C412        C  0.55854598  0.12165730  0.24599534    -0.21000
C413        C  0.53957293  0.09859443  0.23363516    -0.09000
C414        C  0.53504112  0.07585092  0.24766440     0.29800
F415        F  0.51642879  0.05303751  0.23753619    -0.19600
H416        H  0.54547904  0.05853702  0.28313374     0.18200
H417        H  0.56255960  0.13950517  0.23589535     0.18200
F418        F  0.59036157  0.14493921  0.28291987    -0.19600
C419        C  0.00181144  0.39443460  0.40026485    -0.21000
C420        C  0.97661696  0.38432071  0.39087876    -0.09000
C421        C  0.97133821  0.38477479  0.35950731     0.29800
C422        C  0.99096291  0.39539218  0.33798224    -0.21000
C423        C  0.01619058  0.40524369  0.34717310    -0.09000
C424        C  0.02144979  0.40448421  0.37860921     0.29800
F425        F  0.04556431  0.41411814  0.38861093    -0.19600
H426        H  0.00623637  0.39430467  0.42433856     0.18200
H427        H  0.98637423  0.39567399  0.31400781     0.18200
F428        F  0.94723741  0.37569955  0.34975425    -0.19600
C429        C  0.78229919  0.21888012  0.44518893    -0.21000
C430        C  0.78114768  0.24124082  0.44720705    -0.09000
C431        C  0.75807824  0.24027973  0.44148657     0.29800
C432        C  0.73676017  0.21741991  0.43301621    -0.21000
C433        C  0.73786776  0.19502929  0.43113318    -0.09000
C434        C  0.76073631  0.19583552  0.43775939     0.29800
F435        F  0.76245711  0.17455366  0.43597625    -0.19600
H436        H  0.79990732  0.21925638  0.44960868     0.18200
H437        H  0.71926930  0.21715305  0.42812252     0.18200
F438        F  0.75637335  0.26158464  0.44297076    -0.19600
C439        C  0.97850698  0.58380332  0.85850454    -0.21000
C440        C  0.97065428  0.55982931  0.84566066    -0.09000
C441        C  0.98273898  0.54647407  0.85500243     0.29800
C442        C  0.00222638  0.55697319  0.87663457    -0.21000
C443        C  0.01033937  0.58107865  0.88901140    -0.09000
C444        C  0.99832545  0.59447454  0.87980352     0.29800
F445        F  0.00523466  0.61750951  0.89203752    -0.19600
H446        H  0.96949530  0.59446137  0.85178178     0.18200
H447        H  0.01121621  0.54631459  0.88349026     0.18200
F448        F  0.97532321  0.52296846  0.84398662    -0.19600
C449        C  0.77397170  0.52963900  0.73506363    -0.21000
C450        C  0.78630664  0.52742896  0.76104625    -0.09000
C451        C  0.77518243  0.52456724  0.79014582     0.29800
C452        C  0.75206301  0.52383350  0.79296276    -0.21000
C453        C  0.73962355  0.52598830  0.76692105    -0.09000
C454        C  0.75093357  0.52897083  0.73782637     0.29800
F455        F  0.73946697  0.53029215  0.71177350    -0.19600
H456        H  0.78215873  0.53179129  0.71239088     0.18200
H457        H  0.74389740  0.52151854  0.81565200     0.18200
F458        F  0.78602399  0.52139052  0.81570593    -0.19600
C459        C  0.90351798  0.44455144  0.62972141    -0.21000
C460        C  0.88112062  0.44405873  0.63809785    -0.09000
C461        C  0.85878397  0.42798412  0.62183464     0.29800
C462        C  0.85913266  0.41317823  0.59749397    -0.21000
C463        C  0.88164320  0.41397717  0.58878657    -0.09000
C464        C  0.90386734  0.42974484  0.60541668     0.29800
F465        F  0.92590010  0.43050282  0.59888392    -0.19600
H466        H  0.92098644  0.45665406  0.64180062     0.18200
H467        H  0.84169440  0.40120572  0.58529718     0.18200
F468        F  0.83641542  0.42597751  0.62979815    -0.19600
loop_ 
_geom_bond_atom_site_label_1 
_geom_bond_atom_site_label_2 
_geom_bond_distance 
_geom_bond_site_symmetry_2 
_ccdc_geom_bond_type 
N1            N2   1.321       .  A
N1            C5   1.346       .  A
N1           Cu9   2.072       .  S
N2            C3   1.341       .  A
N2           Cu8   2.062       .  S
C3            C4   1.382       .  A
C3            H6   1.082       .  S
C4            C5   1.386       .  A
C4          C450   1.477       .  S
C5            H7   1.082       .  S
Cu8          N11   2.063       .  S
Cu9          N19   2.073       .  S
Cu10         N12   2.079       .  S
Cu10         N18   2.079       .  S
N11          N12   1.320       .  A
N11          C15   1.343       .  A
N12          C13   1.345       .  A
C13          C14   1.389       .  A
C13          H16   1.082       .  S
C14          C15   1.386       .  A
C14         C460   1.485       .  S
C15          H17   1.081       .  S
N18          N19   1.322       .  A
N18          C22   1.345       .  A
N19          C20   1.345       .  A
C20          C21   1.385       .  A
C20          H23   1.082       .  S
C21          C22   1.387       .  A
C21         C440   1.482       .  S
C22          H24   1.081       .  S
N25          N26   1.322       .  A
N25          C29   1.346       .  A
N25         Cu33   2.079       .  S
N26          C27   1.346       .  A
N26         Cu32   2.077       .  S
C27          C28   1.384       .  A
C27          H30   1.082       .  S
C28          C29   1.384       .  A
C28         C430   1.477       .  S
C29          H31   1.082       .  S
Cu32         N35   2.077       .  S
Cu33         N43   2.079       .  S
Cu34         N36   2.081       .  S
Cu34         N42   2.080       .  S
N35          N36   1.322       .  A
N35          C39   1.345       .  A
N36          C37   1.345       .  A
C37          C38   1.388       .  A
C37          H40   1.081       .  S
C38          C39   1.387       .  A
C38         C463   1.487       .  S
C39          H41   1.082       .  S
N42          N43   1.322       .  A
N42          C46   1.348       .  A
N43          C44   1.345       .  A
C44          C45   1.384       .  A
C44          H47   1.081       .  S
C45          C46   1.385       .  A
C45         C420   1.479       .  S
C46          H48   1.082       .  S
N49          N50   1.323       .  A
N49          C53   1.346       .  A
N49         Cu57   2.076       .  S
N50          C51   1.346       .  A
N50         Cu56   2.081       .  S
C51          C52   1.384       .  A
C51          H54   1.082       .  S
C52          C53   1.384       .  A
C52         C400   1.478       .  S
C53          H55   1.082       .  S
Cu56         N59   2.081       .  S
Cu57         N67   2.075       .  S
Cu58         N60   2.074       .  S
Cu58         N66   2.074       .  S
N59          N60   1.321       .  A
N59          C63   1.346       .  A
N60          C61   1.345       .  A
C61          C62   1.389       .  A
C61          H64   1.081       .  S
C62          C63   1.390       .  A
C62         C413   1.490       .  S
C63          H65   1.082       .  S
N66          N67   1.322       .  A
N66          C70   1.345       .  A
N67          C68   1.345       .  A
C68          C69   1.384       .  A
C68          H71   1.082       .  S
C69          C70   1.384       .  A
C69         C393   1.477       .  S
C70          H72   1.082       .  S
N73          N74   1.323       .  A
N73          C77   1.348       .  A
N73         Cu81   2.082       .  S
N74          C75   1.344       .  A
N74         Cu80   2.075       .  S
C75          C76   1.382       .  A
C75          H78   1.082       .  S
C76          C77   1.385       .  A
C76         C433   1.478       .  S
C77          H79   1.082       .  S
Cu80         N83   2.074       .  S
Cu81         N91   2.082       .  S
Cu82         N84   2.076       .  S
Cu82         N90   2.076       .  S
N83          N84   1.321       .  A
N83          C87   1.345       .  A
N84          C85   1.345       .  A
C85          C86   1.388       .  A
C85          H88   1.082       .  S
C86          C87   1.388       .  A
C86         C410   1.487       .  S
C87          H89   1.081       .  S
N90          N91   1.323       .  A
N90          C94   1.344       .  A
N91          C92   1.347       .  A
C92          C93   1.386       .  A
C92          H95   1.082       .  S
C93          C94   1.384       .  A
C93         C380   1.481       .  S
C94          H96   1.083       .  S
N97          N98   1.319       .  A
N97         C101   1.342       .  A
N97        Cu105   2.064       .  S
N98          C99   1.344       .  A
N98        Cu104   2.067       .  S
C99         C100   1.388       .  A
C99         H102   1.081       .  S
C100        C101   1.387       .  A
C100        C453   1.484       .  S
C101        H103   1.081       .  S
Cu104       N107   2.068       .  S
Cu105       N115   2.064       .  S
Cu106       N108   2.083       .  S
Cu106       N114   2.083       .  S
N107        N108   1.321       .  A
N107        C111   1.342       .  A
N108        C109   1.347       .  A
C109        C110   1.391       .  A
C109        H112   1.081       .  S
C110        C111   1.387       .  A
C110        C370   1.489       .  S
C111        H113   1.081       .  S
N114        N115   1.322       .  A
N114        C118   1.346       .  A
N115        C116   1.343       .  A
C116        C117   1.382       .  A
C116        H119   1.082       .  S
C117        C118   1.386       .  A
C117        C363   1.477       .  S
C118        H120   1.082       .  S
N121        N122   1.322       .  A
N121        C125   1.347       .  A
N121       Cu129   2.075       .  S
N122        C123   1.345       .  A
N122       Cu128   2.076       .  S
C123        C124   1.383       .  A
C123        H126   1.082       .  S
C124        C125   1.384       .  A
C124        C403   1.475       .  S
C125        H127   1.082       .  S
Cu128       N131   2.076   1_554  S
Cu129       N139   2.075       .  S
Cu130       N132   2.078   1_554  S
Cu130       N138   2.078       .  S
N131        N132   1.321       .  A
N131        C135   1.345       .  A
N132        C133   1.345       .  A
C133        C134   1.388       .  A
C133        H136   1.081       .  S
C134        C135   1.388       .  A
C134        C373   1.487       .  S
C135        H137   1.081       .  S
N138        N139   1.323       .  A
N138        C142   1.347       .  A
N139        C140   1.343       .  A
C140        C141   1.384       .  A
C140        H143   1.082       .  S
C141        C142   1.386       .  A
C141        C350   1.480       .  S
C142        H144   1.082       .  S
N145        N146   1.324       .  A
N145        C149   1.346       .  A
N145       Cu153   2.080       .  S
N146        C147   1.346       .  A
N146       Cu152   2.081       .  S
C147        C148   1.384       .  A
C147        H150   1.082       .  S
C148        C149   1.383       .  A
C148        C330   1.476       .  S
C149        H151   1.082       .  S
Cu152       N155   2.081   1_556  S
Cu153       N163   2.079       .  S
Cu154       N156   2.064   1_556  S
Cu154       N162   2.064       .  S
N155        N156   1.320       .  A
N155        C159   1.346       .  A
N156        C157   1.344       .  A
C157        C158   1.385       .  A
C157        H160   1.081       .  S
C158        C159   1.390       .  A
C158        C340   1.485       .  S
C159        H161   1.082       .  S
N162        N163   1.322       .  A
N162        C166   1.342       .  A
N163        C164   1.347       .  A
C164        C165   1.386       .  A
C164        H167   1.082       .  S
C165        C166   1.381       .  A
C165        C443   1.476       .  S
C166        H168   1.082       .  S
N169        N170   1.320       .  A
N169        C173   1.344       .  A
N169       Cu177   2.074       .  S
N170        C171   1.344       .  A
N170       Cu176   2.066       .  S
C171        C172   1.387       .  A
C171        H174   1.081       .  S
C172        C173   1.389       .  A
C172        C323   1.486       .  S
C173        H175   1.081       .  S
Cu176       N179   2.066       .  S
Cu177       N187   2.075       .  S
Cu178       N180   2.093       .  S
Cu178       N186   2.093       .  S
N179        N180   1.321       .  A
N179        C183   1.341       .  A
N180        C181   1.349       .  A
C181        C182   1.394       .  A
C181        H184   1.082       .  S
C182        C183   1.387       .  A
C182        C343   1.493       .  S
C183        H185   1.080       .  S
N186        N187   1.323       .  A
N186        C190   1.347       .  A
N187        C188   1.346       .  A
C188        C189   1.385       .  A
C188        H191   1.082       .  S
C189        C190   1.388       .  A
C189        C423   1.485       .  S
C190        H192   1.083       .  S
N193        N194   1.322       .  A
N193        C197   1.345       .  A
N193       Cu201   2.072       .  S
N194        C195   1.344       .  A
N194       Cu200   2.069       .  S
C195        C196   1.383       .  A
C195        H198   1.082       .  S
C196        C197   1.385       .  A
C196        C303   1.476       .  S
C197        H199   1.081       .  S
Cu200       N203   2.070       .  S
Cu201       N211   2.072       .  S
Cu202       N204   2.072       .  S
Cu202       N210   2.072       .  S
N203        N204   1.320       .  A
N203        C207   1.344       .  A
N204        C205   1.344       .  A
C205        C206   1.388       .  A
C205        H208   1.082       .  S
C206        C207   1.388       .  A
C206        C310   1.487       .  S
C207        H209   1.080       .  S
N210        N211   1.322       .  A
N210        C214   1.344       .  A
N211        C212   1.345       .  A
C212        C213   1.384       .  A
C212        H215   1.082       .  S
C213        C214   1.383       .  A
C213        C360   1.475       .  S
C214        H216   1.082       .  S
N217        N218   1.321       .  A
N217        C221   1.346       .  A
N217       Cu225   2.077       .  S
N218        C219   1.343       .  A
N218       Cu224   2.067       .  S
C219        C220   1.385       .  A
C219        H222   1.081       .  S
C220        C221   1.388       .  A
C220        C320   1.484       .  S
C221        H223   1.081       .  S
Cu224       N227   2.067       .  S
Cu225       N235   2.077       .  S
Cu226       N228   2.075       .  S
Cu226       N234   2.076       .  S
N227        N228   1.320       .  A
N227        C231   1.343       .  A
N228        C229   1.346       .  A
C229        C230   1.389       .  A
C229        H232   1.081       .  S
C230        C231   1.387       .  A
C230        C313   1.486       .  S
C231        H233   1.081       .  S
N234        N235   1.323       .  A
N234        C238   1.345       .  A
N235        C236   1.345       .  A
C236        C237   1.385       .  A
C236        H239   1.082       .  S
C237        C238   1.386       .  A
C237        C353   1.481       .  S
C238        H240   1.082       .  S
N241        N242   1.322       .  A
N241        C245   1.347       .  A
N241       Cu249   2.082       .  S
N242        C243   1.342       .  A
N242       Cu248   2.056       .  S
C243        C244   1.379       .  A
C243        H246   1.082       .  S
C244        C245   1.385       .  A
C244        C300   1.471       .  S
C245        H247   1.082       .  S
Cu248       N251   2.056       .  S
Cu249       N259   2.083       .  S
Cu250       N252   2.071       .  S
Cu250       N258   2.073       .  S
N251        N252   1.320       .  A
N251        C255   1.342       .  A
N252        C253   1.344       .  A
C253        C254   1.388       .  A
C253        H256   1.081       .  S
C254        C255   1.384       .  A
C254        C293   1.480       .  S
C255        H257   1.081       .  S
N258        N259   1.323       .  A
N258        C262   1.345       .  A
N259        C260   1.345       .  A
C260        C261   1.386       .  A
C260        H263   1.082       .  S
C261        C262   1.385       .  A
C261        C383   1.481       .  S
C262        H264   1.081       .  S
N265        N266   1.321       .  A
N265        C269   1.347       .  A
N265       Cu273   2.079       .  S
N266        C267   1.342       .  A
N266       Cu272   2.061       .  S
C267        C268   1.383       .  A
C267        H270   1.082       .  S
C268        C269   1.387       .  A
C268        C333   1.479       .  S
C269        H271   1.082       .  S
Cu272       N275   2.060       .  S
Cu273       N283   2.080       .  S
Cu274       N276   2.069       .  S
Cu274       N282   2.070       .  S
N275        N276   1.319       .  A
N275        C279   1.341       .  A
N276        C277   1.345       .  A
C277        C278   1.389       .  A
C277        H280   1.081       .  S
C278        C279   1.385       .  A
C278        C290   1.482       .  S
C279        H281   1.082       .  S
N282        N283   1.323       .  A
N282        C286   1.343       .  A
N283        C284   1.345       .  A
C284        C285   1.386       .  A
C284        H287   1.082       .  S
C285        C286   1.384       .  A
C285        C390   1.481       .  S
C286        H288   1.082       .  S
C289        C290   1.405       .  A
C289        C294   1.395       .  A
C289        H296   1.082       .  S
C290        C291   1.408       .  A
C291        C292   1.397       .  A
C291        F298   1.356       .  S
C292        C293   1.404       .  A
C292        H297   1.082       .  S
C293        C294   1.407       .  A
C294        F295   1.357       .  S
C299        C300   1.401       .  A
C299        C304   1.398       .  A
C299        H306   1.083       .  S
C300        C301   1.405       .  A
C301        C302   1.397       .  A
C301        F308   1.358       .  S
C302        C303   1.404       .  A
C302        H307   1.083       .  S
C303        C304   1.407       .  A
C304        F305   1.357       .  S
C309        C310   1.406       .  A
C309        C314   1.399       .  A
C309        H316   1.082       .  S
C310        C311   1.409       .  A
C311        C312   1.397       .  A
C311        F318   1.356       .  S
C312        C313   1.406       .  A
C312        H317   1.082       .  S
C313        C314   1.408       .  A
C314        F315   1.356       .  S
C319        C320   1.405       .  A
C319        C324   1.397       .  A
C319        H326   1.082       .  S
C320        C321   1.408       .  A
C321        C322   1.399       .  A
C321        F328   1.357       .  S
C322        C323   1.406       .  A
C322        H327   1.082       .  S
C323        C324   1.408       .  A
C324        F325   1.356       .  S
C329        C330   1.402       .  A
C329        C334   1.397       .  A
C329        H336   1.084       .  S
C330        C331   1.406       .  A
C331        C332   1.400       .  A
C331        F338   1.357       .  S
C332        C333   1.404       .  A
C332        H337   1.083       .  S
C333        C334   1.409       .  A
C334        F335   1.357       .  S
C339        C340   1.402       .  A
C339        C344   1.397       .  A
C339        H346   1.083       .  S
C340        C341   1.409       .  A
C341        C342   1.401       .  A
C341        F348   1.357       .  S
C342        C343   1.407       .  A
C342        H347   1.082       .  S
C343        C344   1.413       .  A
C344        F345   1.355       .  S
C349        C350   1.404       .  A
C349        C354   1.398       .  A
C349        H356   1.083       .  S
C350        C351   1.406       .  A
C351        C352   1.400       .  A
C351        F358   1.357       .  S
C352        C353   1.406       .  A
C352        H357   1.083       .  S
C353        C354   1.407       .  A
C354        F355   1.357       .  S
C359        C360   1.403       .  A
C359        C364   1.398       .  A
C359        H366   1.083       .  S
C360        C361   1.406       .  A
C361        C362   1.397       .  A
C361        F368   1.357       .  S
C362        C363   1.403       .  A
C362        H367   1.083       .  S
C363        C364   1.408       .  A
C364        F365   1.357       .  S
C369        C370   1.406       .  A
C369        C374   1.400       .  A
C369        H376   1.083       .  S
C370        C371   1.411       .  A
C371        C372   1.397       .  A
C371        F378   1.356       .  S
C372        C373   1.405       .  A
C372        H377   1.083       .  S
C373        C374   1.409       .  A
C374        F375   1.356       .  S
C379        C380   1.404   1_565  A
C379        C384   1.399       .  A
C379        H386   1.083   1_565  S
C380        C381   1.406   1_545  A
C381        C382   1.400       .  A
C381        F388   1.357   1_565  S
C382        C383   1.405       .  A
C382        H387   1.083       .  S
C383        C384   1.408       .  A
C384        F385   1.357       .  S
C389        C390   1.405       .  A
C389        C394   1.398   1_556  A
C389        H396   1.083       .  S
C390        C391   1.408   1_556  A
C391        C392   1.399       .  A
C391        F398   1.357   1_554  S
C392        C393   1.403   1_565  A
C392        H397   1.083   1_565  S
C393        C394   1.405   1_545  A
C394        F395   1.357   1_565  S
C399        C400   1.404       .  A
C399        C404   1.399       .  A
C399        H406   1.083       .  S
C400        C401   1.407       .  A
C401        C402   1.400       .  A
C401        F408   1.357       .  S
C402        C403   1.403       .  A
C402        H407   1.083       .  S
C403        C404   1.405       .  A
C404        F405   1.357       .  S
C409        C410   1.405       .  A
C409        C414   1.399       .  A
C409        H416   1.083       .  S
C410        C411   1.408       .  A
C411        C412   1.400       .  A
C411        F418   1.357       .  S
C412        C413   1.407       .  A
C412        H417   1.082       .  S
C413        C414   1.410       .  A
C414        F415   1.356       .  S
C419        C420   1.403   1_455  A
C419        C424   1.403       .  A
C419        H426   1.082       .  S
C420        C421   1.405       .  A
C421        C422   1.399       .  A
C421        F428   1.357       .  S
C422        C423   1.405   1_655  A
C422        H427   1.082       .  S
C423        C424   1.410       .  A
C424        F425   1.357       .  S
C429        C430   1.404       .  A
C429        C434   1.400       .  A
C429        H436   1.083       .  S
C430        C431   1.405       .  A
C431        C432   1.399       .  A
C431        F438   1.357       .  S
C432        C433   1.404       .  A
C432        H437   1.083       .  S
C433        C434   1.405       .  A
C434        F435   1.357       .  S
C439        C440   1.407       .  A
C439        C444   1.400       .  A
C439        H446   1.083       .  S
C440        C441   1.408       .  A
C441        C442   1.397   1_655  A
C441        F448   1.357       .  S
C442        C443   1.403       .  A
C442        H447   1.083       .  S
C443        C444   1.404   1_455  A
C444        F445   1.357   1_655  S
C449        C450   1.402       .  A
C449        C454   1.395       .  A
C449        H456   1.084       .  S
C450        C451   1.406       .  A
C451        C452   1.398       .  A
C451        F458   1.357       .  S
C452        C453   1.407       .  A
C452        H457   1.083       .  S
C453        C454   1.409       .  A
C454        F455   1.356       .  S
C459        C460   1.404       .  A
C459        C464   1.398       .  A
C459        H466   1.082       .  S
C460        C461   1.409       .  A
C461        C462   1.399       .  A
C461        F468   1.357       .  S
C462        C463   1.406       .  A
C462        H467   1.082       .  S
C463        C464   1.409       .  A
C464        F465   1.356       .  S
