geometry optimzed in LAMMPS
_audit_creation_date              2020-11-30 
_audit_creation_method            'lammps2cif' 
_symmetry_space_group_name_H-M    'P1' 
_symmetry_Int_Tables_number       1 
_symmetry_cell_setting            triclinic 
loop_ 
_symmetry_equiv_pos_as_xyz 
  x,y,z 
_cell_length_a                    35.92043443475635 
_cell_length_b                    38.16998344787441 
_cell_length_c                    30.95258644592583 
_cell_angle_alpha                 89.81284987949863 
_cell_angle_beta                  89.47098615206029 
_cell_angle_gamma                 118.25862824767952 
loop_ 
_atom_site_label 
_atom_site_type_symbol 
_atom_site_fract_x 
_atom_site_fract_y 
_atom_site_fract_z 
_atom_site_charge 
N1          N  0.86698270  0.64738644  0.41879090    -0.06890
N2          N  0.90412673  0.67274984  0.43241265    -0.59010
N3          N  0.79408814  0.55854217  0.45925058    -0.06570
N4          N  0.78689657  0.54883652  0.50057591    -0.61140
N5          N  0.83070285  0.56202083  0.44677973    -0.06170
N6          N  0.84947559  0.55587532  0.48115366    -0.58990
N7          N  0.83635585  0.64712962  0.44281562    -0.05850
N8          N  0.85353078  0.67210149  0.47559152    -0.61490
C9          C  0.89597050  0.68827689  0.46731280     0.95290
C10         C  0.82118653  0.54690878  0.51482976     0.95060
N11         N  0.69459381  0.53925580  0.37293584    -0.07080
N12         N  0.66812831  0.50184161  0.36505995    -0.59590
N13         N  0.74361411  0.63356238  0.40895215    -0.05200
N14         N  0.73014571  0.65194164  0.43593935    -0.60840
N15         N  0.72489407  0.62859925  0.37141186    -0.07110
N16         N  0.69858033  0.64395460  0.37259535    -0.59860
N17         N  0.71072671  0.54296291  0.41209610    -0.04840
N18         N  0.69523436  0.50766161  0.43104212    -0.60930
Mn19       Mn  0.77051843  0.59607391  0.43103622     1.18440
C20         C  0.66873402  0.48266132  0.40138195     0.97370
C21         C  0.70262970  0.65894105  0.41291749     0.98030
N22         N  0.84731990  0.54625173  0.34546731    -0.07130
N23         N  0.84869961  0.51481839  0.36018182    -0.63430
N24         N  0.87769624  0.63062987  0.29056275    -0.05930
N25         N  0.90657632  0.64965398  0.26047286    -0.64110
N26         N  0.89544696  0.63440167  0.32829537    -0.06630
N27         N  0.93698443  0.65615813  0.32427217    -0.63700
N28         N  0.82941746  0.53960952  0.30713878    -0.05530
N29         N  0.81755007  0.50229298  0.29598152    -0.64390
Mn30       Mn  0.86040230  0.59724955  0.38437706     1.10660
C31         C  0.82991252  0.48738361  0.32979325     0.98590
C32         C  0.94356806  0.66580735  0.28171285     0.98670
N33         N  0.76082582  0.63018549  0.27667811    -0.06640
N34         N  0.74893005  0.65412976  0.25859716    -0.62010
N35         N  0.75190703  0.54030056  0.25609343    -0.05960
N36         N  0.74954650  0.52996569  0.21505623    -0.58740
N37         N  0.71852743  0.54399273  0.26746515    -0.07270
N38         N  0.69453565  0.53812802  0.23254478    -0.61580
N39         N  0.79317346  0.63030617  0.25593347    -0.06260
N40         N  0.80379409  0.65508867  0.22229004    -0.58770
Mn41       Mn  0.72371246  0.58518391  0.32283628     1.20190
Mn42       Mn  0.81376108  0.58508864  0.27718180     1.10090
Cl43       Cl  0.79197508  0.59102676  0.35373975    -0.86740
C44         C  0.77578760  0.66969188  0.22516693     0.95600
C45         C  0.71407791  0.52894454  0.19975548     0.95390
N46         N  0.74243025  0.66452092  0.84034496    -0.06890
N47         N  0.72989711  0.69218220  0.84077068    -0.59010
N48         N  0.72173497  0.57300878  0.80734276    -0.06570
N49         N  0.69713380  0.53762353  0.79032339    -0.61140
N50         N  0.70739695  0.57459622  0.84639082    -0.06170
N51         N  0.67329349  0.54156968  0.85608365    -0.58990
N52         N  0.75803522  0.66378495  0.80205203    -0.05850
N53         N  0.75687274  0.69023268  0.77594224    -0.61490
C54         C  0.73969244  0.70786374  0.80014546     0.95290
C55         C  0.66724716  0.51843820  0.82161764     0.95060
N56         N  0.84692467  0.59548204  0.76704297    -0.07080
N57         N  0.86251024  0.58371804  0.73362276    -0.59590
N58         N  0.84445793  0.67828065  0.76367158    -0.05200
N59         N  0.85486328  0.70527156  0.73229189    -0.60840
N60         N  0.87882144  0.68408278  0.78421149    -0.07110
N61         N  0.91233335  0.71510192  0.76886364    -0.59860
N62         N  0.80823735  0.58810447  0.75762875    -0.04840
N63         N  0.79724404  0.57154646  0.71939030    -0.60930
Mn64       Mn  0.78204460  0.62496453  0.78219281     1.18440
C65         C  0.83030511  0.56777224  0.70410676     0.97370
C66         C  0.89745736  0.72816474  0.73646866     0.98030
N67         N  0.73806940  0.58149328  0.94731548    -0.07130
N68         N  0.71029482  0.56557513  0.98014664    -0.63430
N69         N  0.81297712  0.67372201  0.95082657    -0.05930
N70         N  0.83065899  0.70657658  0.97429854    -0.64110
N71         N  0.77840064  0.67029747  0.93304168    -0.06630
N72         N  0.77154694  0.69984856  0.94344335    -0.63700
N73         N  0.77386557  0.58241626  0.95811947    -0.05530
N74         N  0.77069960  0.56674263  0.99698153    -0.64390
Mn75       Mn  0.74012467  0.62232251  0.89166573     1.10660
C76         C  0.73091637  0.55546705  0.01085446     0.98590
C77         C  0.80399514  0.72235038  0.96921134     0.98670
N78         N  0.91355112  0.68243096  0.87770203    -0.06640
N79         N  0.95253737  0.71289627  0.88178490    -0.62010
N80         N  0.85425910  0.58606085  0.90708857    -0.05960
N81         N  0.84172734  0.54929221  0.92082862    -0.58740
N82         N  0.87187491  0.59096234  0.86827515    -0.07270
N83         N  0.87163008  0.55816348  0.85545937    -0.61580
N84         N  0.89310141  0.67738281  0.91435593    -0.06260
N85         N  0.91594333  0.70382904  0.94275453    -0.58770
Mn86       Mn  0.87960946  0.63846881  0.82433667     1.20190
Mn87       Mn  0.83418331  0.62927483  0.93296342     1.10090
Cl88       Cl  0.80867168  0.62795962  0.85770708    -0.86740
C89         C  0.95316602  0.72554898  0.92337117     0.95600
C90         C  0.85284972  0.53232472  0.88824244     0.95390
N91         N  0.15684055  0.87575248  0.04336365    -0.06890
N92         N  0.13188243  0.86463650  0.00961811    -0.59010
N93         N  0.20833537  0.93086989  0.12987047    -0.06570
N94         N  0.22340389  0.95688999  0.16153337    -0.61140
N95         N  0.22959548  0.94623789  0.09389243    -0.06170
N96         N  0.25963742  0.98316514  0.10079539    -0.58990
N97         N  0.13571942  0.85908581  0.07891401    -0.05850
N98         N  0.09541675  0.83586689  0.06964744    -0.61490
C99         C  0.09336566  0.84005534  0.02602456     0.95290
C100        C  0.25484563  0.98977845  0.14306219     0.95060
N101        N  0.23228375  0.85435046  0.20173885    -0.07080
N102        N  0.25103784  0.86305445  0.23956221    -0.59590
N103        N  0.13931157  0.80236776  0.15235803    -0.05200
N104        N  0.09980631  0.78224815  0.16573972    -0.60840
N105        N  0.15996217  0.78223466  0.16007521    -0.07110
N106        N  0.13447541  0.74794660  0.17930274    -0.59860
N107        N  0.21030114  0.87340818  0.19632980    -0.04840
N108        N  0.21425527  0.89585067  0.22987825    -0.60930
Mn109      Mn  0.17186356  0.86620873  0.13944943     1.18440
C110        C  0.23998988  0.88948469  0.25658445     0.97370
C111        C  0.09691397  0.74818393  0.18164720     0.98030
N112        N  0.29242328  0.93458220  0.03584057    -0.07130
N113        N  0.31504028  0.97276430  0.02829797    -0.63430
N114        N  0.24213985  0.84175539  0.99536813    -0.05930
N115        N  0.23353406  0.81748850  0.96219821    -0.64110
N116        N  0.22165462  0.86254040  0.99198772    -0.06630
N117        N  0.19834023  0.85245620  0.95712104    -0.63700
N118        N  0.31611676  0.91703029  0.03861020    -0.05530
N119        N  0.35655568  0.94448048  0.03279407    -0.64390
Mn120      Mn  0.22512432  0.90555650  0.04056561     1.10660
C121        C  0.35507492  0.97952372  0.02702861     0.98590
C122        C  0.20534005  0.82393890  0.93925684     0.98670
N123        N  0.22862942  0.76959235  0.10479452    -0.06640
N124        N  0.21651041  0.73149018  0.11154417    -0.62010
N125        N  0.31866864  0.85843345  0.11049521    -0.05960
N126        N  0.35835894  0.86630522  0.10967203    -0.58740
N127        N  0.30021626  0.84059126  0.14702765    -0.07270
N128        N  0.32712382  0.83415609  0.17049651    -0.61580
N129        N  0.24930758  0.78204094  0.06769438    -0.06260
N130        N  0.25160638  0.75154796  0.04897676    -0.58770
Mn131      Mn  0.23013512  0.81117620  0.15413912     1.20190
Mn132      Mn  0.28265288  0.84971100  0.05172056     1.10090
Cl133      Cl  0.22728685  0.85765629  0.09629256    -0.86740
C134        C  0.23062327  0.71989589  0.07672838     0.95600
C135        C  0.36333245  0.85041621  0.14653956     0.95390
N136        N  0.12609620  0.78196951  0.53134175    -0.06890
N137        N  0.09499666  0.74633091  0.52023879    -0.59010
N138        N  0.18653044  0.87565265  0.49590214    -0.06570
N139        N  0.19510646  0.89889882  0.46170365    -0.61140
N140        N  0.20591984  0.85394835  0.49296276    -0.06170
N141        N  0.22797626  0.86195460  0.45672150    -0.58990
N142        N  0.11013055  0.80627396  0.53679439    -0.05850
N143        N  0.06956266  0.78880855  0.53155028    -0.61490
C144        C  0.05991895  0.75182747  0.52116310     0.95290
C145        C  0.22096663  0.89010399  0.43748090     0.95060
N146        N  0.18732469  0.94295107  0.59985150    -0.07080
N147        N  0.20563981  0.98251482  0.59861225    -0.59590
N148        N  0.09681217  0.85736269  0.60135629    -0.05200
N149        N  0.05515210  0.83705976  0.60095289    -0.60840
N150        N  0.11026463  0.86797868  0.64076632    -0.07110
N151        N  0.07802713  0.85551261  0.66821902    -0.59860
N152        N  0.17288296  0.92903629  0.56154875    -0.04840
N153        N  0.17963596  0.95748142  0.53382652    -0.60930
Mn154      Mn  0.14170704  0.86735631  0.54824513     1.18440
C155        C  0.19997760  0.99077774  0.55692213     0.97370
C156        C  0.04374211  0.83692288  0.64269648     0.98030
N157        N  0.26704968  0.83788551  0.55432926    -0.07130
N158        N  0.29784164  0.83740973  0.53065545    -0.63430
N159        N  0.20662020  0.77898339  0.62980495    -0.05930
N160        N  0.20838516  0.74973739  0.65112636    -0.64110
N161        N  0.18949941  0.76655060  0.59180020    -0.06630
N162        N  0.17940774  0.72892233  0.58649808    -0.63700
N163        N  0.28155208  0.85266343  0.59281941    -0.05530
N164        N  0.32193330  0.86235656  0.59587112    -0.64390
Mn165      Mn  0.19683012  0.80884369  0.54116311     1.10660
C166        C  0.33202723  0.85325044  0.55686446     0.98590
C167        C  0.19041082  0.71846349  0.62400658     0.98670
N168        N  0.17271129  0.85305788  0.70331146    -0.06640
N169        N  0.16022975  0.84880068  0.74448405    -0.62010
N170        N  0.26657768  0.90721884  0.66740448    -0.05960
N171        N  0.29612483  0.92704341  0.69671335    -0.58740
N172        N  0.24518636  0.92663628  0.66043514    -0.07270
N173        N  0.26116042  0.95998295  0.68127813    -0.61580
N174        N  0.19054413  0.83039757  0.69612561    -0.06260
N175        N  0.18840757  0.80919726  0.73019758    -0.58770
Mn176      Mn  0.17857022  0.89813357  0.65206624     1.20190
Mn177      Mn  0.23739218  0.84282590  0.64692025     1.10090
Cl178      Cl  0.18928215  0.85436721  0.59704026    -0.86740
C179        C  0.17033352  0.82102632  0.76059736     0.95600
C180        C  0.29259712  0.96060966  0.70455071     0.95390
N181        N  0.23590102  0.51954895  0.12151764    -0.06890
N182        N  0.24928165  0.55772286  0.11275244    -0.59010
N183        N  0.18675335  0.44605241  0.19433471    -0.06570
N184        N  0.16753825  0.43415158  0.23251001    -0.61140
N185        N  0.22765092  0.46597810  0.19970185    -0.06170
N186        N  0.23734560  0.46878692  0.24066285    -0.58990
N187        N  0.19520162  0.49854481  0.11278032    -0.05850
N188        N  0.18048126  0.52255561  0.09872721    -0.61490
C189        C  0.21455165  0.55961807  0.09864058     0.95290
C190        C  0.19989174  0.44884296  0.26109956     0.95060
N191        N  0.14297587  0.34431546  0.12241035    -0.07080
N192        N  0.12194332  0.30842723  0.14115729    -0.59590
N193        N  0.13246949  0.41170716  0.06199001    -0.05200
N194        N  0.09410059  0.40270794  0.04748116    -0.60840
N195        N  0.14735233  0.39225965  0.03874515    -0.07110
N196        N  0.12204666  0.37287998  0.00713874    -0.59860
N197        N  0.13448704  0.36962564  0.14358767    -0.04840
N198        N  0.10884642  0.35234376  0.17636251    -0.60930
Mn199      Mn  0.16120945  0.43240273  0.12777068     1.18440
C200        C  0.10084926  0.31419631  0.17530929     0.97370
C201        C  0.08888481  0.37919120  0.01232385     0.98030
N202        N  0.30384427  0.45377261  0.17165288    -0.07130
N203        N  0.29939039  0.43562106  0.20981681    -0.63430
N204        N  0.33226238  0.49983041  0.07073135    -0.05930
N205        N  0.36680901  0.52638600  0.04935697    -0.64110
N206        N  0.32055687  0.51865967  0.09848402    -0.06630
N207        N  0.34570511  0.55720311  0.09638472    -0.63700
N208        N  0.31671999  0.43648133  0.14261367    -0.05530
N209        N  0.32185220  0.40789345  0.16050442    -0.64390
Mn210      Mn  0.27285141  0.49042796  0.14848882     1.10660
C211        C  0.31139750  0.40711294  0.20233513     0.98590
C212        C  0.37453639  0.56264245  0.06558212     0.98670
N213        N  0.23029722  0.39837228  0.00748264    -0.06640
N214        N  0.21965643  0.39719716  0.96675757    -0.62010
N215        N  0.26788684  0.36530163  0.07819514    -0.05960
N216        N  0.28521128  0.34318925  0.06498473    -0.58740
N217        N  0.22651811  0.34305767  0.08047710    -0.07270
N218        N  0.21558923  0.30594817  0.06990443    -0.61580
N219        N  0.27093966  0.42319166  0.01196726    -0.06260
N220        N  0.28895985  0.43865843  0.97452626    -0.58770
Mn221      Mn  0.18664704  0.36887188  0.06304125     1.20190
Mn222      Mn  0.29872557  0.43228096  0.07514798     1.10090
Cl223      Cl  0.22983513  0.43125957  0.10314666    -0.86740
C224        C  0.25651176  0.42192809  0.94687401     0.95600
C225        C  0.25229898  0.30604389  0.06078688     0.95390
N226        N  0.14349205  0.42439938  0.66550616    -0.06890
N227        N  0.11429939  0.41224175  0.69625503    -0.59010
N228        N  0.14371283  0.39902765  0.56315278    -0.06570
N229        N  0.11400233  0.38278304  0.53460451    -0.61140
N230        N  0.14332956  0.37268897  0.59103265    -0.06170
N231        N  0.11041508  0.33741769  0.58242593    -0.58990
N232        N  0.13774477  0.44745016  0.63770080    -0.05850
N233        N  0.10363241  0.45046954  0.64873948    -0.61490
C234        C  0.09007890  0.42931027  0.68614088     0.95290
C235        C  0.09333660  0.34461470  0.54623663     0.95060
N236        N  0.24195259  0.49227069  0.50496852    -0.07080
N237        N  0.25234258  0.49091413  0.46427638    -0.59590
N238        N  0.20202388  0.52477281  0.58572195    -0.05200
N239        N  0.18440691  0.54578105  0.60034179    -0.60840
N240        N  0.24288086  0.54725226  0.57960734    -0.07110
N241        N  0.25385520  0.58437440  0.59038082    -0.59860
N242        N  0.20093790  0.47156548  0.51047719    -0.04840
N243        N  0.18250060  0.45550005  0.47376596    -0.60930
Mn244      Mn  0.17093362  0.46134303  0.57418507     1.18440
C245        C  0.21495257  0.46764220  0.44516638     0.97370
C246        C  0.21694771  0.58292995  0.60339138     0.98030
N247        N  0.22769924  0.37159483  0.63935608    -0.07130
N248        N  0.22288519  0.33758379  0.65617071    -0.63430
N249        N  0.26553236  0.45035424  0.70128639    -0.05930
N250        N  0.28342019  0.46264317  0.73903480    -0.64110
N251        N  0.22448673  0.42736546  0.70590959    -0.06630
N252        N  0.21356966  0.42390905  0.74705541    -0.63700
N253        N  0.26839754  0.39559797  0.63264088    -0.05530
N254        N  0.29084552  0.37787735  0.64269761    -0.64390
Mn255      Mn  0.18407478  0.39753334  0.65050937     1.10660
C256        C  0.26266747  0.34187897  0.65753994     0.98590
C257        C  0.25053931  0.44660683  0.76703366     0.98670
N258        N  0.32220940  0.54650437  0.61657545    -0.06640
N259        N  0.34589478  0.58453462  0.62505945    -0.62010
N260        N  0.32639717  0.46771305  0.57507500    -0.05960
N261        N  0.34330857  0.44635928  0.55957076    -0.58740
N262        N  0.32043605  0.48821555  0.54417954    -0.07270
N263        N  0.33300205  0.48050684  0.50649472    -0.61580
N264        N  0.32716744  0.52440777  0.64608616    -0.06260
N265        N  0.35488711  0.54689229  0.67506760    -0.58770
Mn266      Mn  0.28303420  0.51996502  0.55994273     1.20190
Mn267      Mn  0.29747737  0.45984740  0.63899958     1.10090
Cl268      Cl  0.23378280  0.45936746  0.60584353    -0.86740
C269        C  0.36571610  0.58435233  0.66189264     0.95600
C270        C  0.34778835  0.45467045  0.51693738     0.95390
N271        N  0.38794489  0.29090857  0.41640883    -0.06890
N272        N  0.37704152  0.31044368  0.44432744    -0.59010
N273        N  0.35679545  0.27224547  0.31543894    -0.06570
N274        N  0.34472223  0.29190345  0.28960138    -0.61140
N275        N  0.32704188  0.25130913  0.34430152    -0.06170
N276        N  0.29402113  0.25782642  0.33845129    -0.58990
N277        N  0.41457560  0.31548917  0.38745892    -0.05850
N278        N  0.42113401  0.35223014  0.39512185    -0.61490
C279        C  0.39775376  0.34877109  0.43120928     0.95290
C280        C  0.30581956  0.28292537  0.30355225     0.95060
N281        N  0.44386181  0.24417449  0.25681709    -0.07080
N282        N  0.44952014  0.23809829  0.21607021    -0.59590
N283        N  0.48835735  0.30757274  0.33807431    -0.05200
N284        N  0.51555410  0.33986414  0.35777858    -0.60840
N285        N  0.50351490  0.28238865  0.33344730    -0.07110
N286        N  0.54178106  0.29738608  0.35005173    -0.59860
N287        N  0.43020173  0.27039244  0.26028427    -0.04840
N288        N  0.42645337  0.28294023  0.22139679    -0.60930
Mn289      Mn  0.42306468  0.29186482  0.32465643     1.18440
C290        C  0.43862126  0.26235992  0.19413554     0.97370
C291        C  0.54833186  0.33299669  0.36542866     0.98030
N292        N  0.30366423  0.16377694  0.39453275    -0.07130
N293        N  0.26939389  0.14570512  0.41946358    -0.63430
N294        N  0.38491331  0.18271597  0.45377321    -0.05930
N295        N  0.39173626  0.17190323  0.49222290    -0.64110
N296        N  0.37058223  0.20860495  0.45790285    -0.06630
N297        N  0.36762850  0.21587209  0.49898236    -0.63700
N298        N  0.31882847  0.13881265  0.38684467    -0.05530
N299        N  0.29403586  0.10391960  0.40462548    -0.64390
Mn300      Mn  0.34666645  0.22824134  0.40278411     1.10660
C301        C  0.26360825  0.10833838  0.42542984     0.98590
C302        C  0.38073158  0.19282347  0.52017997     0.98670
N303        N  0.48120055  0.19825309  0.36701890    -0.06640
N304        N  0.51930125  0.20284262  0.37439907    -0.62010
N305        N  0.38696313  0.13565020  0.32335995    -0.05960
N306        N  0.35856079  0.10250044  0.30517469    -0.58740
N307        N  0.41452946  0.15915785  0.29420212    -0.07270
N308        N  0.40501010  0.14249728  0.25554227    -0.61580
N309        N  0.45400630  0.17446739  0.39587543    -0.06260
N310        N  0.47304577  0.16173347  0.42350361    -0.58770
Mn311      Mn  0.46176233  0.22092870  0.31197624     1.20190
Mn312      Mn  0.38632719  0.15734231  0.38992098     1.10090
Cl313      Cl  0.40399178  0.22441125  0.35718185    -0.86740
C314        C  0.51392922  0.18017267  0.40979048     0.95600
C315        C  0.37041011  0.10682834  0.26297918     0.95390
N316        N  0.50604552  0.29973081  0.85637636    -0.06890
N317        N  0.54244733  0.32719415  0.84062140    -0.59010
N318        N  0.44566142  0.27293055  0.94331266    -0.06570
N319        N  0.43633302  0.27975115  0.98266482    -0.61140
N320        N  0.47245926  0.25856972  0.94489258    -0.06170
N321        N  0.48211809  0.25557030  0.98531960    -0.58990
N322        N  0.47710004  0.31140516  0.85320232    -0.05850
N323        N  0.49362253  0.34750024  0.83607219    -0.61490
C324        C  0.53422075  0.35653800  0.82730037     0.95290
C325        C  0.45929803  0.26891922  0.00847754     0.95060
N326        N  0.32578904  0.20215604  0.89892083    -0.07080
N327        N  0.29145930  0.18883703  0.92430390    -0.59590
N328        N  0.37925673  0.27400210  0.82336399    -0.05200
N329        N  0.37607910  0.30278532  0.80219189    -0.60840
N330        N  0.35162011  0.23924699  0.80825222    -0.07110
N331        N  0.33007319  0.24335478  0.77634453    -0.59860
N332        N  0.35468493  0.23672929  0.91356022    -0.04840
N333        N  0.34198240  0.24672495  0.94892625    -0.60930
Mn334      Mn  0.41457639  0.27526939  0.88290554     1.18440
C335        C  0.30298978  0.21695267  0.95597154     0.97370
C336        C  0.34568190  0.28285716  0.77246248     0.98030
N337        N  0.47641384  0.18059930  0.91053694    -0.07130
N338        N  0.48152711  0.16639717  0.94817914    -0.63430
N339        N  0.48470646  0.19751342  0.80006959    -0.05930
N340        N  0.50039177  0.19736590  0.76148565    -0.64110
N341        N  0.51095977  0.22840779  0.82214890    -0.06630
N342        N  0.54493504  0.25058151  0.79871895    -0.63700
N343        N  0.45405830  0.15071962  0.88499790    -0.05530
N344        N  0.44431652  0.11645310  0.90350557    -0.64390
Mn345      Mn  0.49310782  0.24208500  0.88510063     1.10660
C346        C  0.46208596  0.12603685  0.94249509     0.98590
C347        C  0.53786776  0.23107533  0.76073485     0.98670
N348        N  0.36179863  0.17029295  0.77186250    -0.06640
N349        N  0.35153925  0.17593284  0.73253947    -0.62010
N350        N  0.36408745  0.11617093  0.85695458    -0.05960
N351        N  0.35212985  0.07812389  0.85386056    -0.58740
N352        N  0.33134609  0.12287127  0.85649733    -0.07270
N353        N  0.29687937  0.08860303  0.84978370    -0.61580
N354        N  0.39266361  0.16114323  0.76977874    -0.06260
N355        N  0.40363891  0.15997639  0.72929246    -0.58770
Mn356      Mn  0.34068348  0.18241975  0.83468176     1.20190
Mn357      Mn  0.42415570  0.15618077  0.82747799     1.10090
Cl358      Cl  0.41785419  0.21389137  0.85806440    -0.86740
C359        C  0.37773998  0.16908729  0.70609383     0.95600
C360        C  0.31043064  0.06082594  0.84750847     0.95390
N361        N  0.65993399  0.77922244  0.14222487    -0.06890
N362        N  0.65830217  0.74390297  0.14799446    -0.59010
N363        N  0.68020964  0.86207756  0.19544618    -0.06570
N364        N  0.69032006  0.87496598  0.23531225    -0.61140
N365        N  0.63971643  0.83687069  0.19352521    -0.06170
N366        N  0.62114054  0.83320460  0.23101816    -0.58990
N367        N  0.69975892  0.80703403  0.14186247    -0.05850
N368        N  0.72541274  0.79188513  0.14557594    -0.61490
C369        C  0.69988479  0.75272923  0.14902188     0.95290
C370        C  0.65282798  0.85675972  0.25674469     0.95060
N371        N  0.73864953  0.94843334  0.09737450    -0.07080
N372        N  0.73781595  0.98233670  0.10379826    -0.59590
N373        N  0.76189742  0.87399844  0.08532061    -0.05200
N374        N  0.78367041  0.85446478  0.08145974    -0.60840
N375        N  0.75639663  0.88598022  0.04740353    -0.07110
N376        N  0.77448151  0.87492142  0.01691536    -0.59860
N377        N  0.74134349  0.93327002  0.13468449    -0.04840
N378        N  0.74307330  0.95676525  0.16658528    -0.60930
Mn379      Mn  0.72188071  0.86990871  0.14037680     1.18440
C380        C  0.74079273  0.98735285  0.14705328     0.97370
C381        C  0.79174424  0.85546078  0.03873788     0.98030
N382        N  0.56408821  0.82349301  0.13708653    -0.07130
N383        N  0.53186878  0.81668171  0.16327695    -0.63430
N384        N  0.56923523  0.77892952  0.05073785    -0.05930
N385        N  0.53825418  0.75084113  0.02797556    -0.64110
N386        N  0.57740204  0.76246052  0.08424024    -0.06630
N387        N  0.55239947  0.72355735  0.08487363    -0.63700
N388        N  0.56384923  0.84438209  0.10323098    -0.05530
N389        N  0.53209878  0.85217152  0.10558345    -0.64390
Mn390      Mn  0.60983466  0.79918986  0.13977836     1.10660
C391        C  0.51256482  0.83530476  0.14323263     0.98590
C392        C  0.52875613  0.71608271  0.04897554     0.98670
N393        N  0.67736539  0.86762148  0.98783447    -0.06640
N394        N  0.68997679  0.86047022  0.95012802    -0.62010
N395        N  0.62853496  0.91454347  0.03649957    -0.05960
N396        N  0.61481356  0.94106602  0.02812658    -0.58740
N397        N  0.66993051  0.93343689  0.03536801    -0.07270
N398        N  0.68470753  0.97128234  0.02782442    -0.61580
N399        N  0.63636412  0.84489875  0.99234329    -0.06260
N400        N  0.62089610  0.82062140  0.96002655    -0.58770
Mn401      Mn  0.71191551  0.90934660  0.04055372     1.20190
Mn402      Mn  0.59848042  0.84640436  0.04499780     1.10090
Cl403      Cl  0.66027645  0.85601024  0.09135041    -0.86740
C404        C  0.65417280  0.83031915  0.93363784     0.95600
C405        C  0.65127215  0.97689595  0.02306959     0.95390
N406        N  0.71968344  0.85428364  0.64613060    -0.06890
N407        N  0.72915368  0.84346192  0.68296899    -0.59010
N408        N  0.73077825  0.89638439  0.55116452    -0.06570
N409        N  0.75377372  0.91543935  0.51724484    -0.61140
N410        N  0.73490189  0.92116026  0.58197307    -0.06170
N411        N  0.76112272  0.95800053  0.56981462    -0.58990
N412        N  0.71222022  0.82757657  0.61622928    -0.05850
N413        N  0.71569239  0.79719245  0.63272375    -0.61490
C414        C  0.72674775  0.80806128  0.67437591     0.95290
C415        C  0.77285570  0.95393495  0.52916438     0.95060
N416        N  0.61358184  0.83316857  0.49793032    -0.07080
N417        N  0.60281380  0.84206189  0.46076421    -0.59590
N418        N  0.63992726  0.77194332  0.55478759    -0.05200
N419        N  0.65197141  0.74675545  0.53970228    -0.60840
N420        N  0.59979440  0.75984017  0.54671766    -0.07110
N421        N  0.58472301  0.72650598  0.52387703    -0.59860
N422        N  0.65403479  0.84314836  0.49812769    -0.04840
N423        N  0.67184666  0.85967192  0.46104242    -0.60930
Mn424      Mn  0.68482989  0.83411540  0.55488948     1.18440
C425        C  0.63967186  0.85930024  0.43857830     0.97370
C426        C  0.61761625  0.71827464  0.52085099     0.98030
N427        N  0.67298593  0.93912063  0.63579076    -0.07130
N428        N  0.69888716  0.97451819  0.65006909    -0.63430
N429        N  0.61836710  0.85672769  0.69921704    -0.05930
N430        N  0.60198648  0.83675231  0.73504621    -0.64110
N431        N  0.65949421  0.87124351  0.69844937    -0.06630
N432        N  0.67204930  0.86140370  0.73405694    -0.63700
N433        N  0.63357296  0.92854085  0.64736258    -0.05530
N434        N  0.63385212  0.95642528  0.67338467    -0.64390
Mn435      Mn  0.69739405  0.89753919  0.64053366     1.10660
C436        C  0.67517878  0.98517792  0.67450926     0.98590
C437        C  0.63578163  0.83990868  0.75647382     0.98670
N438        N  0.53904745  0.77600982  0.61101604    -0.06640
N439        N  0.51433544  0.73796652  0.61788515    -0.62010
N440        N  0.55052800  0.86696008  0.58891751    -0.05960
N441        N  0.52192983  0.87951628  0.58941952    -0.58740
N442        N  0.54470723  0.84368855  0.55540849    -0.07270
N443        N  0.51176990  0.84012761  0.53302635    -0.61580
N444        N  0.54148888  0.79690929  0.64568538    -0.06260
N445        N  0.51782483  0.77272104  0.67723423    -0.58770
Mn446      Mn  0.57327558  0.80259783  0.55197995     1.20190
Mn447      Mn  0.58502366  0.86300751  0.64578118     1.10090
Cl448      Cl  0.63482587  0.84943967  0.59801291    -0.86740
C449        C  0.50124840  0.73606267  0.65908560     0.95600
C450        C  0.49838089  0.86339399  0.55392284     0.95390
N451        N  0.79075524  0.26908883  0.34026484    -0.06890
N452        N  0.77518139  0.29415400  0.34094324    -0.59010
N453        N  0.83865779  0.24881640  0.26207301    -0.06570
N454        N  0.85364822  0.26388883  0.22321528    -0.61140
N455        N  0.79738172  0.22767098  0.26072075    -0.06170
N456        N  0.78347111  0.22767096  0.22177867    -0.58990
N457        N  0.83221616  0.28822572  0.34457881    -0.05850
N458        N  0.84548395  0.32670140  0.34816585    -0.61490
C459        C  0.80957452  0.32970274  0.34627117     0.95290
C460        C  0.81841581  0.25041398  0.19853534     0.95060
N461        N  0.90614249  0.20015157  0.32787865    -0.07080
N462        N  0.93895512  0.19551599  0.31458457    -0.59590
N463        N  0.90398387  0.26998968  0.38984486    -0.05200
N464        N  0.93558603  0.30159957  0.40808191    -0.60840
N465        N  0.89759830  0.23805084  0.41165156    -0.07110
N466        N  0.92243120  0.24656920  0.44490108    -0.59860
N467        N  0.90469115  0.22844301  0.30464779    -0.04840
N468        N  0.93430783  0.24187870  0.27458434    -0.60930
Mn469      Mn  0.87086249  0.26011279  0.32540954     1.18440
C470        C  0.95574119  0.22141503  0.28050436     0.97370
C471        C  0.94587045  0.28599563  0.44311089     0.98030
N472        N  0.72894004  0.14589103  0.29364778    -0.07130
N473        N  0.72349034  0.13389934  0.25298213    -0.63430
N474        N  0.71337909  0.15927358  0.39909169    -0.05930
N475        N  0.68130622  0.14923889  0.42659901    -0.64110
N476        N  0.71732787  0.18879433  0.37433495    -0.06630
N477        N  0.68898955  0.19999569  0.38470159    -0.63700
N478        N  0.72574485  0.11708303  0.31939874    -0.05530
N479        N  0.71766143  0.08511270  0.29699236    -0.64390
Mn480      Mn  0.75770964  0.20772081  0.31715020     1.10660
C481        C  0.71603187  0.09570207  0.25567851     0.98590
C482        C  0.66719677  0.17582393  0.41787442     0.98670
N483        N  0.82507958  0.16280980  0.44828935    -0.06640
N484        N  0.83785679  0.17409752  0.48813033    -0.62010
N485        N  0.78958742  0.09892120  0.36964076    -0.05960
N486        N  0.77606661  0.06129486  0.37998492    -0.58740
N487        N  0.83121170  0.11773742  0.36865469    -0.07270
N488        N  0.84591812  0.09305288  0.37865925    -0.61580
N489        N  0.78355712  0.14585393  0.44690144    -0.06260
N490        N  0.76746999  0.14517849  0.48568174    -0.58770
Mn491      Mn  0.86525258  0.17907238  0.38855654     1.20190
Mn492      Mn  0.75182249  0.12931898  0.38438784     1.10090
Cl493      Cl  0.81151147  0.19420060  0.35393194    -0.86740
C494        C  0.80179799  0.16308939  0.51125781     0.95600
C495        C  0.81139742  0.05790211  0.38617471     0.95390
N496        N  0.88869191  0.27995304  0.79829186    -0.06890
N497        N  0.91472674  0.29541644  0.76503956    -0.59010
N498        N  0.88681762  0.26105447  0.90429006    -0.06570
N499        N  0.91577606  0.27685791  0.93372408    -0.61140
N500        N  0.89341749  0.23686323  0.87889839    -0.06170
N501        N  0.93044607  0.23906639  0.88958510    -0.58990
N502        N  0.88873514  0.30810767  0.82255458    -0.05850
N503        N  0.91536016  0.34347637  0.80635012    -0.61490
C504        C  0.93086218  0.33509111  0.76993413     0.95290
C505        C  0.94302970  0.26346257  0.92494162     0.95060
N506        N  0.78203085  0.26064522  0.95312837    -0.07080
N507        N  0.77197965  0.25489464  0.99467423    -0.59590
N508        N  0.82005241  0.32378988  0.86840061    -0.05200
N509        N  0.83694327  0.36176439  0.85929506    -0.60840
N510        N  0.77897520  0.30806438  0.87388755    -0.07110
N511        N  0.76701679  0.33567457  0.86842533    -0.59860
N512        N  0.82324529  0.27919657  0.94819360    -0.04840
N513        N  0.84205710  0.28635595  0.98578437    -0.60930
Mn514      Mn  0.85482914  0.29341488  0.88555683     1.18440
C515        C  0.81004106  0.27111998  0.01470105     0.97370
C516        C  0.80375602  0.36885751  0.85847699     0.98030
N517        N  0.81345658  0.15152879  0.83159290    -0.07130
N518        N  0.81513270  0.12276073  0.80875373    -0.63430
N519        N  0.77467403  0.18572889  0.76142589    -0.05930
N520        N  0.75841472  0.17672137  0.72232854    -0.64110
N521        N  0.81612427  0.20331692  0.75886845    -0.06630
N522        N  0.82882218  0.20674196  0.71820492    -0.63700
N523        N  0.77382004  0.13845385  0.84423200    -0.05530
N524        N  0.75087974  0.10065820  0.83563482    -0.64390
Mn525      Mn  0.85406523  0.21726248  0.81733211     1.10660
C526        C  0.77549964  0.09107934  0.81128819     0.98590
C527        C  0.79249731  0.18990923  0.69549430     0.98670
N528        N  0.70799092  0.23091205  0.83359399    -0.06640
N529        N  0.68682813  0.24733784  0.81555499    -0.62010
N530        N  0.70618234  0.15444530  0.88620884    -0.05960
N531        N  0.68655109  0.11825050  0.90260512    -0.58740
N532        N  0.70782020  0.18067561  0.91446889    -0.07270
N533        N  0.68993642  0.16232369  0.95151323    -0.61580
N534        N  0.70912054  0.20434357  0.80760240    -0.06260
N535        N  0.68879782  0.20174692  0.77170022    -0.58770
Mn536      Mn  0.74248894  0.24508726  0.89510151     1.20190
Mn537      Mn  0.74065957  0.17062422  0.82468142     1.10090
Cl538      Cl  0.79806867  0.23139366  0.85595298    -0.86740
C539        C  0.67501223  0.22863214  0.77701686     0.95600
C540        C  0.67562608  0.12294579  0.94308194     0.95390
C541        C  0.76226199  0.14752607  0.58109085    -0.06550
C542        C  0.79973630  0.17172509  0.55805111    -0.00630
C543        C  0.83289505  0.20412192  0.57967762    -0.09200
C544        C  0.82843027  0.20895589  0.62417009    -0.06570
C545        C  0.79161264  0.18389989  0.64767591    -0.00640
C546        C  0.75715534  0.15333154  0.62532303    -0.09110
C547        C  0.71503506  0.12694607  0.64735702     0.61270
H548        H  0.73674721  0.12364757  0.56400354     0.11970
H549        H  0.85414549  0.23277765  0.64113195     0.11980
C550        C  0.87232484  0.23460051  0.55612033     0.61510
F551        F  0.68643794  0.09894819  0.61961857    -0.23660
F552        F  0.69759462  0.15018949  0.66191134    -0.20990
F553        F  0.72058516  0.10678591  0.68171202    -0.20670
F554        F  0.86088160  0.24882905  0.52023448    -0.20720
F555        F  0.89706868  0.21749681  0.54363882    -0.21040
F556        F  0.89666986  0.26682495  0.58188216    -0.23710
C557        C  0.85384763  0.27251718  0.12740389    -0.06550
C558        C  0.81711850  0.26033777  0.15246918    -0.00630
C559        C  0.77988815  0.25706024  0.13280103    -0.09200
C560        C  0.77976655  0.26150951  0.08790813    -0.06570
C561        C  0.81555329  0.27089418  0.06220936    -0.00640
C562        C  0.85423253  0.27870501  0.08253113    -0.09110
C563        C  0.89577073  0.29280761  0.05786351     0.61270
H564        H  0.88219054  0.27615058  0.14322595     0.11970
H565        H  0.75102680  0.25713566  0.07237167     0.11980
C566        C  0.74018904  0.24945017  0.15820042     0.61510
F567        F  0.92886754  0.29920708  0.08489416    -0.23660
F568        F  0.90628295  0.32848783  0.03708264    -0.20990
F569        F  0.89222333  0.26448644  0.02812763    -0.20670
F570        F  0.75078598  0.27466344  0.19321712    -0.20720
F571        F  0.71913172  0.21028696  0.17213481    -0.21040
F572        F  0.71238088  0.25634358  0.13338896    -0.23710
C573        C  0.71062205  0.03295175  0.78535959    -0.06550
C574        C  0.75342724  0.06085883  0.77671226    -0.00630
C575        C  0.76872612  0.06428351  0.73370244    -0.09200
C576        C  0.74026385  0.04161968  0.70128484    -0.06570
C577        C  0.69739744  0.01423615  0.70980033    -0.00640
C578        C  0.68223019  0.00998447  0.75290115    -0.09110
C579        C  0.63665519  0.98144876  0.76512286     0.61270
H580        H  0.69900095  0.02997889  0.81828101     0.11970
H581        H  0.75180214  0.04469807  0.66830815     0.11980
C582        C  0.81465026  0.09117447  0.72136158     0.61510
F583        F  0.62782559  0.98504135  0.80802661    -0.23660
F584        F  0.62862268  0.94265469  0.75881156    -0.20990
F585        F  0.60974808  0.98938245  0.74011835    -0.20670
F586        F  0.84059471  0.08392068  0.74858704    -0.20720
F587        F  0.82382997  0.13048134  0.72422879    -0.21040
F588        F  0.82367851  0.08477625  0.67943793    -0.23710
C589        C  0.80641396  0.97557895  0.45745973    -0.06550
C590        C  0.79491456  0.98628804  0.49711203    -0.00630
C591        C  0.79840643  0.02473477  0.50144928    -0.09200
C592        C  0.80672312  0.04812663  0.46407394    -0.06570
C593        C  0.81177460  0.03450489  0.42350064    -0.00640
C594        C  0.81453550  0.99921964  0.42016352    -0.09110
C595        C  0.82478155  0.98649483  0.37733861     0.61270
H596        H  0.80600271  0.94710844  0.45500860     0.11970
H597        H  0.80672626  0.07649702  0.46568214     0.11980
C598        C  0.79132272  0.04070913  0.54397625     0.61510
F599        F  0.82608171  0.95093762  0.38098686    -0.23660
F600        F  0.86383779  0.01540563  0.36262074    -0.20990
F601        F  0.79454956  0.98175253  0.34729344    -0.20670
F602        F  0.81599291  0.03684198  0.57575751    -0.20720
F603        F  0.74913589  0.02024653  0.55603793    -0.21040
F604        F  0.80232753  0.08066074  0.54091085    -0.23710
C605        C  0.74946187  0.05552893  0.15880127    -0.06550
C606        C  0.72931090  0.01501942  0.17032614    -0.00630
C607        C  0.69789483  0.00143797  0.20350919    -0.09200
C608        C  0.69126334  0.02924405  0.22701824    -0.06570
C609        C  0.71524281  0.07008939  0.21941054    -0.00640
C610        C  0.74326677  0.08369635  0.18319682    -0.09110
C611        C  0.76785422  0.12750774  0.17148749     0.61270
H612        H  0.77193281  0.06521467  0.13214866     0.11970
H613        H  0.66941393  0.01936579  0.25425752     0.11980
C614        C  0.67374310  0.95820816  0.21708786     0.61510
F615        F  0.79186221  0.13385385  0.13419388    -0.23660
F616        F  0.79487316  0.14814251  0.20460020    -0.20990
F617        F  0.74003988  0.14244583  0.16451941    -0.20670
F618        F  0.70142148  0.94869080  0.23793727    -0.20720
F619        F  0.65702889  0.93417626  0.18147657    -0.21040
F620        F  0.64071275  0.95085057  0.24540739    -0.23710
C621        C  0.62255049  0.02433091  0.00453634    -0.06550
C622        C  0.65757434  0.01761879  0.00963495    -0.00630
C623        C  0.69913137  0.05045998  0.00030772    -0.09200
C624        C  0.70273707  0.08656372  0.98487896    -0.06570
C625        C  0.66778042  0.09150098  0.97580533    -0.00640
C626        C  0.62717719  0.06081129  0.98738271    -0.09110
C627        C  0.58920222  0.06688820  0.98077704     0.61270
H628        H  0.59141211  0.00032391  0.01229117     0.11970
H629        H  0.73334020  0.11077670  0.97570808     0.11980
C630        C  0.74063697  0.04858137  0.00364525     0.61510
F631        F  0.55293769  0.03573178  0.99809061    -0.23660
F632        F  0.58372927  0.06989008  0.93701707    -0.20990
F633        F  0.59559248  0.10158401  0.00092075    -0.20670
F634        F  0.74042604  0.02018191  0.97580873    -0.20720
F635        F  0.74647471  0.04027903  0.04569416    -0.21040
F636        F  0.77570215  0.08415739  0.99245741    -0.23710
C637        C  0.67130580  0.82451442  0.81468283    -0.06550
C638        C  0.63451949  0.82492946  0.80015645    -0.00630
C639        C  0.60019434  0.81555033  0.82900891    -0.09200
C640        C  0.60696962  0.81218952  0.87253843    -0.06570
C641        C  0.64685342  0.81993131  0.88791226    -0.00640
C642        C  0.67815872  0.82212106  0.85875165    -0.09110
C643        C  0.71734856  0.82042707  0.87359291     0.61270
H644        H  0.69582762  0.82855460  0.79151123     0.11970
H645        H  0.58196605  0.80756163  0.89521760     0.11980
C646        C  0.55785704  0.81225981  0.81565881     0.61510
F647        F  0.74039423  0.81773117  0.83897184    -0.23660
F648        F  0.70549844  0.78713023  0.89945112    -0.20990
F649        F  0.74338090  0.85412417  0.89636794    -0.20670
F650        F  0.54002056  0.78392477  0.78384548    -0.20720
F651        F  0.56355437  0.84873382  0.80081482    -0.21040
F652        F  0.52909366  0.80085935  0.84970806    -0.23710
C653        C  0.61727090  0.82525923  0.37125935    -0.06550
C654        C  0.64078921  0.86129100  0.39220344    -0.00630
C655        C  0.66748538  0.89616318  0.36929545    -0.09200
C656        C  0.67109018  0.89349061  0.32466481    -0.06570
C657        C  0.64767905  0.85731329  0.30331114    -0.00640
C658        C  0.62029698  0.82226404  0.32680725    -0.09110
C659        C  0.59581537  0.78141300  0.30625427     0.61270
H660        H  0.59743583  0.79906458  0.39044999     0.11970
H661        H  0.69228208  0.91949190  0.30655036     0.11980
C662        C  0.69114545  0.93567196  0.39203599     0.61510
F663        F  0.57790160  0.75129286  0.33693893    -0.23660
F664        F  0.62258353  0.77332109  0.28068729    -0.20990
F665        F  0.56331345  0.78019265  0.28160112    -0.20670
F666        F  0.72014509  0.93416693  0.41988745    -0.20720
F667        F  0.66290174  0.94343861  0.41540809    -0.21040
F668        F  0.71243985  0.96675747  0.36312468    -0.23710
C669        C  0.57408991  0.20294777  0.71945583    -0.06550
C670        C  0.57250925  0.23765011  0.73068537    -0.00630
C671        C  0.61076472  0.27301257  0.73510202    -0.09200
C672        C  0.64678785  0.26988978  0.74553272    -0.06570
C673        C  0.64469655  0.23235193  0.74855429    -0.00640
C674        C  0.60918977  0.19854145  0.73150721    -0.09110
C675        C  0.60558387  0.15723608  0.73127266     0.61270
H676        H  0.54483829  0.17690394  0.71134874     0.11970
H677        H  0.67509134  0.29621021  0.75537909     0.11980
C678        C  0.61256287  0.31327893  0.73469306     0.61510
F679        F  0.56827575  0.12938012  0.71293063    -0.23660
F680        F  0.60655400  0.14489311  0.77313867    -0.20990
F681        F  0.63854751  0.15784639  0.70745872    -0.20670
F682        F  0.62236655  0.32987790  0.77537619    -0.20720
F683        F  0.57426812  0.31024787  0.72228702    -0.21040
F684        F  0.64334622  0.33796689  0.70556501    -0.23710
C685        C  0.58398303  0.20612158  0.44270568    -0.06550
C686        C  0.54831547  0.17322828  0.42642943    -0.00630
C687        C  0.55031572  0.13786236  0.41705949    -0.09200
C688        C  0.58942417  0.13786158  0.42065742    -0.06570
C689        C  0.62619141  0.17239717  0.43202099    -0.00640
C690        C  0.62310440  0.20626942  0.44583100    -0.09110
C691        C  0.66140229  0.24290712  0.46232823     0.61270
H692        H  0.58178711  0.23287499  0.44978626     0.11970
H693        H  0.59243085  0.11224901  0.41021453     0.11980
C694        C  0.51219454  0.10155757  0.39983317     0.61510
F695        F  0.65022635  0.26979060  0.48042051    -0.23660
F696        F  0.68973915  0.26191147  0.42889347    -0.20990
F697        F  0.68100537  0.23180495  0.49374791    -0.20670
F698        F  0.49991276  0.11087970  0.36109863    -0.20720
F699        F  0.47918852  0.08905999  0.42938066    -0.21040
F700        F  0.52073794  0.07026577  0.39271617    -0.23710
C701        C  0.40729463  0.17549560  0.58563878    -0.06550
C702        C  0.37982961  0.18809786  0.56789489    -0.00630
C703        C  0.35167115  0.19413028  0.59565890    -0.09200
C704        C  0.35195079  0.18667811  0.64008796    -0.06570
C705        C  0.37976026  0.17452180  0.65815655    -0.00640
C706        C  0.40840502  0.16903286  0.63028272    -0.09110
C707        C  0.44056614  0.15697663  0.64660718     0.61270
H708        H  0.42860398  0.17124982  0.56394566     0.11970
H709        H  0.33029212  0.19078029  0.66133342     0.11980
C710        C  0.32078673  0.20773522  0.57914547     0.61510
F711        F  0.46428255  0.15293856  0.61334928    -0.23660
F712        F  0.42014267  0.12075657  0.66799952    -0.20990
F713        F  0.46839729  0.18582554  0.67399887    -0.20670
F714        F  0.29552117  0.18202731  0.54768035    -0.20720
F715        F  0.34283074  0.24588925  0.56236252    -0.21040
F716        F  0.29439478  0.20848717  0.61160852    -0.23710
C717        C  0.43495483  0.23117053  0.12407920    -0.06550
C718        C  0.44182897  0.26567920  0.14632302    -0.00630
C719        C  0.45577723  0.30188313  0.12300341    -0.09200
C720        C  0.46127148  0.30171183  0.07782956    -0.06570
C721        C  0.45518253  0.26723965  0.05602897    -0.00640
C722        C  0.44195518  0.23133961  0.07941091    -0.09110
C723        C  0.43454528  0.19310741  0.05747343     0.61270
H724        H  0.42456417  0.20381599  0.14236248     0.11970
H725        H  0.47101098  0.32873257  0.05909511     0.11980
C726        C  0.46670695  0.34074465  0.14553798     0.61510
F727        F  0.41899898  0.16136957  0.08618200    -0.23660
F728        F  0.47218636  0.19725610  0.04061643    -0.20990
F729        F  0.40566066  0.18420951  0.02462335    -0.20670
F730        F  0.49661927  0.34781506  0.17686703    -0.20720
F731        F  0.43086048  0.33883845  0.16452414    -0.21040
F732        F  0.48314867  0.37271893  0.11704415    -0.23710
C733        C  0.39793270  0.65106767  0.69455339    -0.06550
C734        C  0.40329390  0.62000057  0.67661252    -0.00630
C735        C  0.44412201  0.62648171  0.66448616    -0.09200
C736        C  0.47778688  0.66521591  0.66669768    -0.06570
C737        C  0.47133960  0.69741901  0.67862339    -0.00640
C738        C  0.43183173  0.69008666  0.69623183    -0.09110
C739        C  0.42492452  0.72352771  0.71390750     0.61270
H740        H  0.36639411  0.64517998  0.70405703     0.11970
H741        H  0.50865243  0.67142394  0.65435654     0.11980
C742        C  0.45139900  0.59352361  0.64533901     0.61510
F743        F  0.38502640  0.70946164  0.73218126    -0.23660
F744        F  0.42937204  0.74997801  0.68113046    -0.20990
F745        F  0.45431475  0.74324258  0.74557046    -0.20670
F746        F  0.42810177  0.57936066  0.60809354    -0.20720
F747        F  0.43920097  0.56273783  0.67494913    -0.21040
F748        F  0.49348466  0.60661810  0.63472868    -0.23710
C749        C  0.28979287  0.30116603  0.75798117    -0.06550
C750        C  0.32614692  0.29992044  0.74325500    -0.00630
C751        C  0.33801785  0.30746419  0.69924332    -0.09200
C752        C  0.31361609  0.31738434  0.67136996    -0.06570
C753        C  0.27779207  0.31996053  0.68610788    -0.00640
C754        C  0.26549214  0.31154829  0.73033499    -0.09110
C755        C  0.22805498  0.31487223  0.74892628     0.61270
H756        H  0.28058740  0.29381885  0.79158150     0.11970
H757        H  0.32335072  0.32481163  0.63789134     0.11980
C758        C  0.37686474  0.30572372  0.68227509     0.61510
F759        F  0.22192862  0.30529717  0.79252328    -0.23660
F760        F  0.19166398  0.28907822  0.72768724    -0.20990
F761        F  0.23466710  0.35342883  0.74419937    -0.20670
F762        F  0.37207181  0.26790034  0.68823755    -0.20720
F763        F  0.41205803  0.33257630  0.70445031    -0.21040
F764        F  0.38375726  0.31500432  0.63866009    -0.23710
C765        C  0.39341589  0.44521238  0.46162853    -0.06550
C766        C  0.35586257  0.42905224  0.48638089    -0.00630
C767        C  0.33087064  0.38719025  0.48888078    -0.09200
C768        C  0.34653762  0.36311602  0.47091896    -0.06570
C769        C  0.38500839  0.37866910  0.44766242    -0.00640
C770        C  0.40807794  0.42061327  0.44125233    -0.09110
C771        C  0.44831550  0.43948393  0.41424564     0.61270
H772        H  0.41207594  0.47727806  0.45993097     0.11970
H773        H  0.32761359  0.33121691  0.47499425     0.11980
C774        C  0.28796785  0.36614232  0.51151013     0.61510
F775        F  0.46697740  0.48060444  0.41449085    -0.23660
F776        F  0.43918505  0.42724996  0.37187876    -0.20990
F777        F  0.47708468  0.42842787  0.43026236    -0.20670
F778        F  0.27043669  0.39093766  0.51914031    -0.20720
F779        F  0.29215989  0.35045265  0.55036978    -0.21040
F780        F  0.25993332  0.33534341  0.48605716    -0.23710
C781        C  0.02383876  0.33853378  0.53221610    -0.06550
C782        C  0.05068383  0.32103882  0.52846725    -0.00630
C783        C  0.04352756  0.29347362  0.49534975    -0.09200
C784        C  0.01055750  0.28514257  0.46622977    -0.06570
C785        C  0.98505281  0.30408145  0.46867009    -0.00640
C786        C  0.99154519  0.33103046  0.50236274    -0.09110
C787        C  0.96531144  0.35245863  0.50586779     0.61270
H788        H  0.03065949  0.36071656  0.55696684     0.11970
H789        H  0.00420127  0.26337567  0.44112101     0.11980
C790        C  0.07132010  0.27373217  0.49056183     0.61510
F791        F  0.97717207  0.37812894  0.54060023    -0.23660
F792        F  0.92310045  0.32527901  0.51104209    -0.20990
F793        F  0.97047090  0.37440297  0.46856222    -0.20670
F794        F  0.07058155  0.25456127  0.52881072    -0.20720
F795        F  0.11244122  0.30205428  0.48118582    -0.21040
F796        F  0.05767166  0.24592283  0.45782936    -0.23710
C797        C  0.99936087  0.39713816  0.76639525    -0.06550
C798        C  0.96767573  0.36476764  0.74438630    -0.00630
C799        C  0.97405393  0.35945902  0.70000588    -0.09200
C800        C  0.01369859  0.38420226  0.68068715    -0.06570
C801        C  0.04678339  0.41361183  0.70424220    -0.00640
C802        C  0.03911923  0.42144647  0.74707483    -0.09110
C803        C  0.07356117  0.45431024  0.77264303     0.61270
H804        H  0.99397830  0.40149577  0.79996676     0.11970
H805        H  0.02016070  0.37867543  0.64784866     0.11980
C806        C  0.93996729  0.32724670  0.67310656     0.61510
F807        F  0.05901305  0.45947255  0.81244770    -0.23660
F808        F  0.08926443  0.48976078  0.74979885    -0.20990
F809        F  0.10570380  0.44500625  0.77948042    -0.20670
F810        F  0.90151855  0.32640851  0.68057547    -0.20720
F811        F  0.93669681  0.29062589  0.68345225    -0.21040
F812        F  0.94915595  0.33403737  0.62938000    -0.23710
C813        C  0.44627671  0.60666775  0.03028040    -0.06550
C814        C  0.41211034  0.60341570  0.05607867    -0.00630
C815        C  0.41550801  0.63954746  0.07409431    -0.09200
C816        C  0.45324321  0.67567141  0.06820156    -0.06570
C817        C  0.48785866  0.67819025  0.04489771    -0.00640
C818        C  0.48398868  0.64348780  0.02436740    -0.09110
C819        C  0.51981728  0.64577219  0.99635158     0.61270
H820        H  0.44382456  0.57992634  0.01571236     0.11970
H821        H  0.45692585  0.70251941  0.08370481     0.11980
C822        C  0.38039537  0.64115058  0.10054369     0.61510
F823        F  0.50979546  0.60960070  0.97745255    -0.23660
F824        F  0.55552784  0.65707220  0.02103710    -0.20990
F825        F  0.52856203  0.67360649  0.96379018    -0.20670
F826        F  0.37588728  0.62238838  0.14002813    -0.20720
F827        F  0.34299031  0.62314905  0.07813747    -0.21040
F828        F  0.38860585  0.67978889  0.10880382    -0.23710
C829        C  0.28829577  0.30281292  0.23769518    -0.06550
C830        C  0.28433781  0.30326191  0.28243990    -0.00630
C831        C  0.28297358  0.33648997  0.30126443    -0.09200
C832        C  0.28881447  0.36915909  0.27426112    -0.06570
C833        C  0.30269535  0.37174550  0.23086484    -0.00640
C834        C  0.30636666  0.33856854  0.21430331    -0.09110
C835        C  0.33496161  0.34141351  0.17642110     0.61270
H836        H  0.28831008  0.27683869  0.22352735     0.11970
H837        H  0.28614499  0.39402193  0.28772757     0.11980
C838        C  0.27702805  0.33754158  0.34957201     0.61510
F839        F  0.34520834  0.31068336  0.17674505    -0.23660
F840        F  0.37257723  0.37660502  0.17804092    -0.20990
F841        F  0.31487313  0.33920833  0.13839020    -0.20670
F842        F  0.31164845  0.33923687  0.37057726    -0.20720
F843        F  0.24113370  0.30354378  0.36264018    -0.20560
F844        F  0.27246421  0.37015913  0.36158293    -0.23710
C845        C  0.24325027  0.22792438  0.97798169    -0.06550
C846        C  0.27687227  0.22147187  0.99067056    -0.00630
C847        C  0.29587527  0.23632606  0.03126600    -0.09200
C848        C  0.28576807  0.26253157  0.05407136    -0.06570
C849        C  0.25548791  0.27265864  0.03907111    -0.00640
C850        C  0.23186597  0.25317452  0.00170908    -0.09110
C851        C  0.19689571  0.26106356  0.98500961     0.61270
H852        H  0.22910242  0.21663409  0.94691735     0.11970
H853        H  0.30281131  0.27625562  0.08328498     0.11980
C854        C  0.32971620  0.22798294  0.05004099     0.61510
F855        F  0.18007526  0.24106699  0.94695392    -0.23660
F856        F  0.21245907  0.30130318  0.97708431    -0.20990
F857        F  0.16448595  0.24828665  0.01530242    -0.20670
F858        F  0.36761455  0.26283344  0.05022910    -0.20720
F859        F  0.33488041  0.19954916  0.02703364    -0.21040
F860        F  0.31879649  0.21428617  0.09209775    -0.23710
C861        C  0.23633807  0.45049534  0.88698043    -0.06550
C862        C  0.25963856  0.43205513  0.90131444    -0.00630
C863        C  0.28310405  0.42173572  0.87203686    -0.09200
C864        C  0.28073561  0.42868994  0.82800936    -0.06570
C865        C  0.25578948  0.44543245  0.81347075    -0.00640
C866        C  0.23455750  0.45801156  0.84304899    -0.09110
C867        C  0.21083477  0.47963730  0.82813860     0.61270
H868        H  0.21922402  0.45855454  0.91049911     0.11970
H869        H  0.29697884  0.41969177  0.80444359     0.11980
C870        C  0.30885326  0.40203050  0.88714341     0.61510
F871        F  0.19456426  0.49147461  0.86248376    -0.23660
F872        F  0.17773278  0.45486771  0.80248358    -0.20990
F873        F  0.23779837  0.51314033  0.80457391    -0.20670
F874        F  0.28303755  0.36728667  0.90947442    -0.20720
F875        F  0.34063549  0.42750430  0.91399553    -0.21040
F876        F  0.32742952  0.39257921  0.85288580    -0.23710
C877        C  0.23436834  0.44832400  0.32883764    -0.06550
C878        C  0.19774663  0.44487607  0.30886394    -0.00630
C879        C  0.16449668  0.44355160  0.33478182    -0.09200
C880        C  0.17087290  0.44936620  0.37960708    -0.06570
C881        C  0.20947451  0.45721970  0.39873917    -0.00640
C882        C  0.24128225  0.45505876  0.37321379    -0.09110
C883        C  0.28257184  0.46009726  0.39196406     0.61270
H884        H  0.25893862  0.44776086  0.30879130     0.11970
H885        H  0.14639340  0.44994973  0.39976007     0.11980
C886        C  0.12359025  0.43818465  0.31528660     0.61510
F887        F  0.30586085  0.45127509  0.36219985    -0.23660
F888        F  0.27424777  0.43488785  0.42712808    -0.20990
F889        F  0.30740057  0.49906187  0.40444719    -0.20670
F890        F  0.10499875  0.40317395  0.29231562    -0.20720
F891        F  0.13179413  0.46979297  0.28792148    -0.21040
F892        F  0.09493324  0.43632134  0.34660981    -0.23710
C893        C  0.99125164  0.28229247  0.98613964    -0.06550
C894        C  0.98610895  0.28767059  0.94209770    -0.00630
C895        C  0.01349938  0.32499214  0.92246104    -0.09200
C896        C  0.04470727  0.35539684  0.94753970    -0.06570
C897        C  0.04876280  0.35045183  0.99187431    -0.00640
C898        C  0.02252588  0.31270282  0.01120605    -0.09110
C899        C  0.02827287  0.30424933  0.05796246     0.61270
H900        H  0.96907043  0.25444842  0.00133241     0.11970
H901        H  0.06652660  0.38349544  0.93257089     0.11980
C902        C  0.00816702  0.33345002  0.87560198     0.61510
F903        F  0.99832585  0.26653937  0.07114245    -0.23660
F904        F  0.02475137  0.33156663  0.08458546    -0.20990
F905        F  0.06771068  0.30688471  0.06289098    -0.20670
F906        F  0.97031789  0.33411910  0.87091334    -0.20720
F907        F  0.00836726  0.30417327  0.84957873    -0.21040
F908        F  0.04028250  0.36979876  0.86149804    -0.23710
C909        C  0.01216087  0.22079948  0.23174442    -0.06550
C910        C  0.00029896  0.23943322  0.26433508    -0.00630
C911        C  0.02752539  0.28014278  0.27281945    -0.09200
C912        C  0.06128774  0.30200543  0.24434270    -0.06570
C913        C  0.07068114  0.28494097  0.20829402    -0.00640
C914        C  0.04806446  0.24287306  0.20434750    -0.09110
C915        C  0.06130800  0.22158190  0.17149866     0.61270
H916        H  0.99168166  0.18949454  0.22598104     0.11970
H917        H  0.07956830  0.33370686  0.24963574     0.11980
C918        C  0.01881416  0.30300065  0.30827223     0.61510
F919        F  0.03804625  0.18068086  0.17608932    -0.23660
F920        F  0.10346328  0.23210373  0.17723255    -0.20990
F921        F  0.05565829  0.23190606  0.13018087    -0.20670
F922        F  0.99388602  0.27835931  0.34131697    -0.20720
F923        F  0.99893818  0.32308218  0.29067091    -0.21040
F924        F  0.05630060  0.33038017  0.32653033    -0.23710
C925        C  0.40985340  0.89213169  0.54636189    -0.06550
C926        C  0.37367461  0.85473065  0.54795740    -0.00630
C927        C  0.37868908  0.82001585  0.54765455    -0.09200
C928        C  0.41998531  0.82409389  0.54677704    -0.06570
C929        C  0.45624458  0.86160372  0.54732580    -0.00640
C930        C  0.45108991  0.89620178  0.54575800    -0.09110
C931        C  0.48906586  0.93729228  0.54302141     0.61270
H932        H  0.40552761  0.91834629  0.54700411     0.11970
H933        H  0.42426060  0.79786351  0.54802020     0.11980
C934        C  0.34057731  0.77891899  0.55065730     0.61510
F935        F  0.47725603  0.96651492  0.53618897    -0.23660
F936        F  0.51504467  0.93878893  0.50900018    -0.20990
F937        F  0.51144256  0.94570106  0.58103128    -0.20670
F938        F  0.31498186  0.77282290  0.51535659    -0.20720
F939        F  0.31775872  0.77568678  0.58807603    -0.21040
F940        F  0.35219802  0.74912531  0.55139547    -0.23710
C941        C  0.23387667  0.68540710  0.63811780    -0.06550
C942        C  0.19419167  0.68184532  0.62808229    -0.00630
C943        C  0.16095243  0.64458760  0.61601101    -0.09200
C944        C  0.16983705  0.61297328  0.60982937    -0.06570
C945        C  0.21064509  0.61734960  0.61551764    -0.00640
C946        C  0.24278626  0.65351972  0.63228801    -0.09110
C947        C  0.28606859  0.65876174  0.64405059     0.61270
H948        H  0.25870678  0.71412907  0.64803819     0.11970
H949        H  0.14495837  0.58490983  0.59844961     0.11980
C950        C  0.11628822  0.63817664  0.60941247     0.61510
F951        F  0.30947218  0.69370506  0.66635694    -0.23660
F952        F  0.30844656  0.66000527  0.60699792    -0.20990
F953        F  0.28167880  0.62752626  0.67020828    -0.20670
F954        F  0.11431390  0.65649806  0.57157262    -0.20720
F955        F  0.10436151  0.65383393  0.64383448    -0.21040
F956        F  0.08740643  0.59815573  0.60680099    -0.23710
C957        C  0.18744199  0.03428739  0.50737376    -0.06550
C958        C  0.21594152  0.02995516  0.53517285    -0.00630
C959        C  0.25967503  0.05624329  0.53066008    -0.09200
C960        C  0.27353593  0.08403146  0.49629832    -0.06570
C961        C  0.24523405  0.08526041  0.46580577    -0.00640
C962        C  0.20149289  0.06129735  0.47228994    -0.09110
C963        C  0.17034156  0.06254863  0.44050993     0.61270
H964        H  0.15405853  0.01367684  0.51101185     0.11970
H965        H  0.30705423  0.10325258  0.49115397     0.11980
C966        C  0.29164698  0.05267232  0.55957548     0.61510
F967        F  0.12894414  0.03688792  0.45245644    -0.23660
F968        F  0.17775017  0.05178988  0.39997506    -0.20990
F969        F  0.17522618  0.10069412  0.43843656    -0.20670
F970        F  0.28957433  0.01580280  0.55431939    -0.20720
F971        F  0.28296851  0.05697813  0.60225835    -0.21040
F972        F  0.33259002  0.08150377  0.55009705    -0.23710
C973        C  0.30947938  0.99994179  0.82029078    -0.06550
C974        C  0.29502785  0.02828468  0.81544726    -0.00630
C975        C  0.28428638  0.03511627  0.77365082    -0.09200
C976        C  0.29469454  0.01860060  0.73839288    -0.06570
C977        C  0.30594237  0.98794420  0.74267303    -0.00640
C978        C  0.31541022  0.97968830  0.78482355    -0.09110
C979        C  0.33504970  0.95327612  0.79509144     0.61270
H980        H  0.31942623  0.99585299  0.85206534     0.11970
H981        H  0.29001000  0.02727864  0.70635302     0.11980
C982        C  0.26130631  0.05914287  0.76526211     0.61510
F983        F  0.37219843  0.97511254  0.81730682    -0.23660
F984        F  0.34504526  0.93826757  0.75901445    -0.20990
F985        F  0.30763376  0.92228875  0.82138661    -0.20670
F986        F  0.28914250  0.09922880  0.76665108    -0.20720
F987        F  0.22952324  0.04963548  0.79578545    -0.21040
F988        F  0.24261508  0.05107630  0.72501686    -0.23710
C989        C  0.44370387  0.81778999  0.11446549    -0.06550
C990        C  0.46891285  0.82788053  0.15117156    -0.00630
C991        C  0.45462584  0.83744491  0.18977625    -0.09200
C992        C  0.41788585  0.84217951  0.18836145    -0.06570
C993        C  0.39634519  0.83786308  0.14936444    -0.00640
C994        C  0.40793830  0.82296151  0.11230961    -0.09110
C995        C  0.38635775  0.81622643  0.06860843     0.61270
H996        H  0.45449527  0.80903559  0.08564283     0.11970
H997        H  0.40743556  0.85172521  0.21677297     0.11980
C998        C  0.47880938  0.84373354  0.23127981     0.61510
F999        F  0.39446831  0.79079005  0.04309692    -0.23660
F1000       F  0.40137019  0.85213935  0.04678924    -0.20990
F1001       F  0.34304674  0.79944073  0.07351622    -0.20670
F1002       F  0.51917543  0.87513810  0.22629759    -0.20720
F1003       F  0.48134750  0.80960193  0.24138937    -0.21040
F1004       F  0.45914849  0.85197163  0.26546721    -0.23710
C1005       C  0.25167113  0.62910916  0.06783564    -0.06550
C1006       C  0.21472733  0.59843544  0.08671039    -0.00630
C1007       C  0.18123894  0.60711152  0.09678874    -0.09200
C1008       C  0.18724492  0.64640157  0.09024899    -0.06570
C1009       C  0.22528634  0.67784409  0.07378171    -0.00640
C1010       C  0.25784343  0.66844968  0.06157551    -0.09110
C1011       C  0.30072729  0.70036925  0.04646677     0.61270
H1012       H  0.27664853  0.62222724  0.05928299     0.11970
H1013       H  0.16228176  0.65327238  0.09939461     0.11980
C1014       C  0.13976647  0.57558436  0.11598477     0.61510
F1015       F  0.32734642  0.68498788  0.03475335    -0.23660
F1016       F  0.31919147  0.72636850  0.08001658    -0.20990
F1017       F  0.29670179  0.72034184  0.01099028    -0.20670
F1018       F  0.14720778  0.56072426  0.15387506    -0.20720
F1019       F  0.12010100  0.54504636  0.08681116    -0.21040
F1020       F  0.11229543  0.59055640  0.12548717    -0.23710
C1021       C  0.41630675  0.09210355  0.00471902    -0.06550
C1022       C  0.44778398  0.09444846  0.97638154    -0.00630
C1023       C  0.45337128  0.06030824  0.97091877    -0.09200
C1024       C  0.42541225  0.02407414  0.99189099    -0.06570
C1025       C  0.39048322  0.02039829  0.01608885    -0.00640
C1026       C  0.38689983  0.05578999  0.02393895    -0.09110
C1027       C  0.35079396  0.05573514  0.05005822     0.61270
H1028       H  0.41159563  0.11800035  0.00740409     0.11970
H1029       H  0.42842398  0.99756130  0.98613334     0.11980
C1030       C  0.48806093  0.06217122  0.94141454     0.61510
F1031       F  0.35846457  0.09371078  0.06053267    -0.23660
F1032       F  0.34542687  0.03503123  0.08827681    -0.20990
F1033       F  0.31398428  0.03892167  0.02639941    -0.20670
F1034       F  0.52587745  0.09430264  0.95287399    -0.20720
F1035       F  0.47962750  0.06678962  0.89893740    -0.21040
F1036       F  0.49202489  0.02791979  0.94431080    -0.23710
C1037       C  0.31336216  0.01264230  0.19574689    -0.06550
C1038       C  0.28773688  0.02221207  0.16938376    -0.00630
C1039       C  0.29190015  0.06094126  0.17142117    -0.09200
C1040       C  0.32064616  0.08853061  0.20101854    -0.06570
C1041       C  0.34489034  0.07829628  0.22871456    -0.00640
C1042       C  0.34218286  0.04018625  0.22512921    -0.09110
C1043       C  0.37017471  0.02903596  0.25195324     0.61270
H1044       H  0.31002395  0.98295954  0.19366926     0.11970
H1045       H  0.32324586  0.11787367  0.20390496     0.11980
C1046       C  0.26469888  0.07222878  0.14361995     0.61510
F1047       F  0.36544849  0.99203089  0.24104453    -0.23660
F1048       F  0.36015806  0.02825901  0.29529422    -0.20990
F1049       F  0.41208788  0.05675173  0.24517716    -0.20670
F1050       F  0.22250690  0.04756996  0.15339713    -0.20720
F1051       F  0.27203350  0.06804734  0.10049604    -0.21040
F1052       F  0.27327299  0.11118268  0.15019510    -0.23710
C1053       C  0.22662023  0.82373564  0.86471134    -0.06550
C1054       C  0.19358242  0.81158382  0.89453928    -0.00630
C1055       C  0.15162852  0.79666700  0.88019446    -0.09200
C1056       C  0.14480484  0.80162658  0.83634392    -0.06570
C1057       C  0.17852232  0.81671217  0.80652797    -0.00640
C1058       C  0.21974971  0.82490112  0.82047152    -0.09110
C1059       C  0.25691163  0.83523185  0.78961991     0.61270
H1060       H  0.25828129  0.83377384  0.87666829     0.11970
H1061       H  0.11314079  0.79226889  0.82478988     0.11980
C1062       C  0.11479508  0.77195402  0.91027274     0.61510
F1063       F  0.29445938  0.84669314  0.81123378    -0.23660
F1064       F  0.26232834  0.86616444  0.76255448    -0.20990
F1065       F  0.24970747  0.80226136  0.76543013    -0.20670
F1066       F  0.11578731  0.79302325  0.94668262    -0.20720
F1067       F  0.11749226  0.73845984  0.92295164    -0.21040
F1068       F  0.07637997  0.75973539  0.89023206    -0.23710
C1069       C  0.21515302  0.91186328  0.31940110    -0.06550
C1070       C  0.24478011  0.90123842  0.30243039    -0.00630
C1071       C  0.27355929  0.89744860  0.33051308    -0.09200
C1072       C  0.26706257  0.89820340  0.37515364    -0.06570
C1073       C  0.23291531  0.90232439  0.39205769    -0.00640
C1074       C  0.20779837  0.91162113  0.36389194    -0.09110
C1075       C  0.17107163  0.91788827  0.37951981     0.61270
H1076       H  0.19476083  0.91672280  0.29746056     0.11970
H1077       H  0.28691606  0.89255046  0.39719109     0.11980
C1078       C  0.30970623  0.89080865  0.31426301     0.61510
F1079       F  0.15217824  0.92752436  0.34602508    -0.23660
F1080       F  0.18533596  0.94881373  0.40867299    -0.20990
F1081       F  0.14034119  0.88335334  0.39874815    -0.20670
F1082       F  0.32939252  0.91527364  0.27907735    -0.20720
F1083       F  0.29458695  0.85150879  0.30259361    -0.21040
F1084       F  0.33987825  0.89944038  0.34577172    -0.23710
C1085       C  0.61259432  0.45903579  0.78405570    -0.06550
C1086       C  0.63483083  0.47608863  0.82205475    -0.00630
C1087       C  0.62396356  0.45303292  0.86098707    -0.09200
C1088       C  0.59125242  0.41399430  0.86014731    -0.06570
C1089       C  0.56825904  0.39756818  0.82286918    -0.00640
C1090       C  0.57849014  0.41999892  0.78412541    -0.09110
C1091       C  0.55318533  0.40275614  0.74364365     0.61270
H1092       H  0.62099924  0.47701469  0.75487087     0.11970
H1093       H  0.58221615  0.39603890  0.88940868     0.11980
C1094       C  0.64571952  0.46887409  0.90395523     0.61510
F1095       F  0.56883965  0.42897570  0.70900074    -0.23660
F1096       F  0.51161935  0.39395346  0.75096541    -0.20990
F1097       F  0.55449717  0.36832475  0.73274883    -0.20670
F1098       F  0.63266240  0.49467221  0.92127532    -0.20720
F1099       F  0.68896933  0.48833560  0.89807832    -0.21040
F1100       F  0.63629956  0.43873921  0.93395580    -0.23710
C1101       C  0.86066075  0.47955564  0.85185252    -0.06550
C1102       C  0.83786513  0.48936289  0.88211646    -0.00630
C1103       C  0.79919448  0.45888400  0.89928162    -0.09200
C1104       C  0.78634083  0.41928417  0.88749622    -0.06570
C1105       C  0.81032210  0.40980135  0.85852537    -0.00640
C1106       C  0.84653203  0.44059930  0.83814951    -0.09110
C1107       C  0.87191432  0.43337392  0.80301557     0.61270
H1108       H  0.88967446  0.50288811  0.83790648     0.11970
H1109       H  0.75874273  0.39529188  0.90270962     0.11980
C1110       C  0.77173065  0.46771234  0.92991273     0.61510
F1111       F  0.88746652  0.46434998  0.77323626    -0.23660
F1112       F  0.84732982  0.39877858  0.78067071    -0.20990
F1113       F  0.90566242  0.43103728  0.82132555    -0.20670
F1114       F  0.76177319  0.49498178  0.91104951    -0.20720
F1115       F  0.79337890  0.48294183  0.96773599    -0.21040
F1116       F  0.73420970  0.43403150  0.94009907    -0.23710
C1117       C  0.76496706  0.75440550  0.99743650    -0.06550
C1118       C  0.80489814  0.75707698  0.99093294    -0.00630
C1119       C  0.84169725  0.79318827  0.99973144    -0.09200
C1120       C  0.83668611  0.82559983  0.01498728    -0.06570
C1121       C  0.79640581  0.82281501  0.01933002    -0.00640
C1122       C  0.75988584  0.78674017  0.01006461    -0.09110
C1123       C  0.71543840  0.78218456  0.01234235     0.61270
H1124       H  0.73703088  0.72650302  0.99120287     0.11970
H1125       H  0.86401278  0.85336657  0.02320474     0.11980
C1126       C  0.88549276  0.79777911  0.99207231     0.61510
F1127       F  0.68467238  0.74430294  0.00165220    -0.23660
F1128       F  0.71254384  0.80822481  0.98356701    -0.20990
F1129       F  0.70639312  0.79011345  0.05335676    -0.20670
F1130       F  0.88990855  0.78952484  0.94941699    -0.20720
F1131       F  0.89151269  0.77184171  0.01876208    -0.21040
F1132       F  0.91672078  0.83602588  0.00063338    -0.23710
C1133       C  0.69418349  0.72504941  0.75742376    -0.06550
C1134       C  0.73170896  0.73854043  0.78072123    -0.00630
C1135       C  0.76644376  0.77597447  0.77067736    -0.09200
C1136       C  0.76340446  0.79778115  0.73556402    -0.06570
C1137       C  0.72746167  0.78242741  0.70954670    -0.00640
C1138       C  0.69136823  0.74653149  0.72170100    -0.09110
C1139       C  0.65027456  0.73099139  0.69709677     0.61270
H1140       H  0.66833470  0.69587343  0.76509729     0.11970
H1141       H  0.78985958  0.82633612  0.72699464     0.11980
C1142       C  0.80737880  0.79158297  0.79562475     0.61510
F1143       F  0.61838192  0.69713066  0.71630851    -0.23660
F1144       F  0.65617277  0.72157330  0.65538623    -0.20990
F1145       F  0.63709206  0.75967084  0.69587878    -0.20670
F1146       F  0.82720258  0.76894053  0.78665524    -0.20720
F1147       F  0.79882760  0.78954403  0.83949554    -0.21040
F1148       F  0.83499892  0.83077643  0.78492971    -0.23710
C1149       C  0.98927776  0.76886128  0.65860578    -0.06550
C1150       C  0.00125720  0.80939937  0.65969121    -0.00630
C1151       C  0.97430305  0.82238827  0.67933336    -0.09200
C1152       C  0.93714016  0.79412948  0.70065773    -0.06570
C1153       C  0.92712063  0.75387259  0.70277132    -0.00640
C1154       C  0.95300210  0.74076502  0.68059366    -0.09110
C1155       C  0.94379837  0.69751673  0.68202484     0.61270
H1156       H  0.01032200  0.75972405  0.64286215     0.11970
H1157       H  0.91736033  0.80365284  0.71826983     0.11980
C1158       C  0.98535771  0.86589966  0.67793688     0.61510
F1159       F  0.96955999  0.69093586  0.65382080    -0.23660
F1160       F  0.90227338  0.67281907  0.67085765    -0.20990
F1161       F  0.95119680  0.68719862  0.72261442    -0.20670
F1162       F  0.99044504  0.87876077  0.63539912    -0.20720
F1163       F  0.02262342  0.88820999  0.69969720    -0.21040
F1164       F  0.95403326  0.87230153  0.69680462    -0.23710
C1165       C  0.01941460  0.79070779  0.92984512    -0.06550
C1166       C  0.98973608  0.75484969  0.94902610    -0.00630
C1167       C  0.99290754  0.74882705  0.99431234    -0.09200
C1168       C  0.02644881  0.77811649  0.01762095    -0.06570
C1169       C  0.05670726  0.81353195  0.99855068    -0.00640
C1170       C  0.05249374  0.82070576  0.95391153    -0.09110
C1171       C  0.08169219  0.85994236  0.93155472     0.61270
H1172       H  0.01598404  0.79535291  0.89590037     0.11970
H1173       H  0.02942092  0.77326534  0.05157662     0.11980
C1174       C  0.96141339  0.71174839  0.01914136     0.61510
F1175       F  0.06670227  0.86304576  0.89144201    -0.23660
F1176       F  0.12140692  0.86334887  0.92530853    -0.20990
F1177       F  0.08483103  0.89129395  0.95633602    -0.20670
F1178       F  0.95535388  0.67778034  0.99760733    -0.20720
F1179       F  0.92337595  0.71225734  0.02428761    -0.21040
F1180       F  0.97516294  0.70962021  0.06009030    -0.23710
C1181       C  0.61705456  0.41945192  0.43330478    -0.06550
C1182       C  0.64975858  0.43937918  0.40333185    -0.00630
C1183       C  0.65567467  0.41836668  0.36859505    -0.09200
C1184       C  0.62340391  0.38013791  0.35976324    -0.06570
C1185       C  0.58691682  0.36278009  0.38557539    -0.00640
C1186       C  0.58509350  0.38081257  0.42492808    -0.09110
C1187       C  0.54822799  0.36049827  0.45638600     0.61270
H1188       H  0.61385225  0.43581405  0.46037131     0.11970
H1189       H  0.62492738  0.36553934  0.33029383     0.11980
C1190       C  0.69334648  0.43669842  0.33782075     0.61510
F1191       F  0.55722247  0.37930214  0.49601536    -0.23660
F1192       F  0.53962878  0.32151111  0.46300112    -0.20990
F1193       F  0.51273622  0.36102240  0.44029948    -0.20670
F1194       F  0.72654062  0.47047211  0.35464254    -0.20720
F1195       F  0.68120373  0.44641544  0.29924861    -0.21040
F1196       F  0.70787741  0.40960598  0.32972766    -0.23710
C1197       C  0.81923530  0.39123366  0.37849618    -0.06550
C1198       C  0.80948624  0.36771029  0.34191030    -0.00630
C1199       C  0.80351663  0.38197122  0.30175398    -0.09200
C1200       C  0.80956545  0.42106405  0.29930276    -0.06570
C1201       C  0.82105832  0.44563484  0.33570951    -0.00640
C1202       C  0.82440210  0.42989724  0.37675597    -0.09110
C1203       C  0.83317447  0.45269270  0.41910522     0.61270
H1204       H  0.82346421  0.37900033  0.40856521     0.11970
H1205       H  0.80628247  0.43298629  0.26863320     0.11980
C1206       C  0.79192873  0.35632670  0.26164057     0.61510
F1207       F  0.82891214  0.42881206  0.45458153    -0.23660
F1208       F  0.80474158  0.46720805  0.42488367    -0.20990
F1209       F  0.87415585  0.48360000  0.41899265    -0.20670
F1210       F  0.75299050  0.32321570  0.26791215    -0.20720
F1211       F  0.82205028  0.34426451  0.25347861    -0.21040
F1212       F  0.78945423  0.37656785  0.22550425    -0.23710
C1213       C  0.65062438  0.64779352  0.47139408    -0.06550
C1214       C  0.67196768  0.66951604  0.43413650    -0.00630
C1215       C  0.66657310  0.70237686  0.42111194    -0.09200
C1216       C  0.64202905  0.71391745  0.44758771    -0.06570
C1217       C  0.62394968  0.69428854  0.48694157    -0.00640
C1218       C  0.62700465  0.65990988  0.49825080    -0.09110
C1219       C  0.60699710  0.63748020  0.53982080     0.61270
H1220       H  0.65452338  0.62233746  0.48063322     0.11970
H1221       H  0.64033725  0.74085629  0.43997127     0.11980
C1222       C  0.68951729  0.72698608  0.38155875     0.61510
F1223       F  0.61086876  0.60320884  0.54371140    -0.23660
F1224       F  0.56444085  0.62682048  0.54048119    -0.20990
F1225       F  0.62617970  0.66133501  0.57495919    -0.20670
F1226       F  0.67666978  0.70347886  0.34517207    -0.20720
F1227       F  0.73265626  0.74200202  0.38625604    -0.21040
F1228       F  0.68142241  0.75868761  0.37538205    -0.23710
C1229       C  0.74690977  0.68237761  0.15908144    -0.06550
C1230       C  0.77100819  0.69780422  0.19656382    -0.00630
C1231       C  0.77140425  0.73108471  0.21667985    -0.09200
C1232       C  0.74359715  0.74444229  0.20259889    -0.06570
C1233       C  0.71793960  0.72821006  0.16648132    -0.00640
C1234       C  0.72058091  0.69764413  0.14321775    -0.09110
C1235       C  0.69534917  0.68121027  0.10257066     0.61270
H1236       H  0.74648494  0.65654369  0.14423252     0.11970
H1237       H  0.74310743  0.76919189  0.21931185     0.11980
C1238       C  0.79885296  0.75185682  0.25509612     0.61510
F1239       F  0.70351206  0.65269047  0.08370346    -0.23660
F1240       F  0.70564985  0.71156926  0.07295175    -0.20990
F1241       F  0.65266133  0.66426760  0.11233103    -0.20670
F1242       F  0.82848217  0.73926001  0.26309228    -0.20720
F1243       F  0.77353937  0.74475351  0.29147158    -0.21040
F1244       F  0.82038775  0.79240874  0.24713520    -0.23710
C1245       C  0.06141965  0.72738960  0.25261702    -0.06550
C1246       C  0.06026155  0.72084356  0.20800791    -0.00630
C1247       C  0.02197072  0.69450185  0.18849053    -0.09200
C1248       C  0.98510882  0.67657897  0.21412361    -0.06570
C1249       C  0.98532456  0.68438022  0.25867639    -0.00640
C1250       C  0.02451221  0.70952283  0.27863498    -0.09110
C1251       C  0.02756545  0.71896848  0.32648834     0.61270
H1252       H  0.09131689  0.74824806  0.26650697     0.11970
H1253       H  0.95555174  0.65663683  0.19903917     0.11980
C1254       C  0.02046289  0.68595061  0.14053438     0.61510
F1255       F  0.06810763  0.74663940  0.33794438    -0.23660
F1256       F  0.01664298  0.68476993  0.35045339    -0.20990
F1257       F  0.00079616  0.73444256  0.33695725    -0.20670
F1258       F  0.04746687  0.67048153  0.13112325    -0.20720
F1259       F  0.03317846  0.72075229  0.11716763    -0.21040
F1260       F  0.98024399  0.65886226  0.12754732    -0.23710
C1261       C  0.00603330  0.74813654  0.47411598    -0.06550
C1262       C  0.01715279  0.72742149  0.50458709    -0.00630
C1263       C  0.98507954  0.69849430  0.53107141    -0.09200
C1264       C  0.94257382  0.69025281  0.52499295    -0.06570
C1265       C  0.93212837  0.71186509  0.49473074    -0.00640
C1266       C  0.96528150  0.74380677  0.47244179    -0.09110
C1267       C  0.95787196  0.77186160  0.44339087     0.61270
H1268       H  0.03079702  0.77197385  0.45527698     0.11970
H1269       H  0.91708308  0.66492430  0.54113454     0.11980
C1270       C  0.99619903  0.67591370  0.56427861     0.61510
F1271       F  0.98516953  0.81072044  0.45461161    -0.23660
F1272       F  0.91694657  0.76614340  0.44721531    -0.20990
F1273       F  0.96561700  0.76610691  0.40086166    -0.20670
F1274       F  0.02579650  0.70196713  0.59265873    -0.20720
F1275       F  0.01287483  0.65431675  0.54359687    -0.21040
F1276       F  0.96105936  0.65002405  0.58790847    -0.23710
C1277       C  0.79065199  0.52944008  0.58968169    -0.06550
C1278       C  0.82739444  0.54463658  0.56368164    -0.00630
C1279       C  0.86645598  0.55914766  0.58592021    -0.09200
C1280       C  0.86769056  0.56585634  0.63192319    -0.06570
C1281       C  0.83035874  0.55410935  0.65721849    -0.00640
C1282       C  0.79128397  0.53146005  0.63530829    -0.09110
C1283       C  0.74912711  0.50897084  0.65906864     0.61270
H1284       H  0.76030925  0.51565296  0.57385813     0.11970
H1285       H  0.89780751  0.58068036  0.64803149     0.11980
C1286       C  0.90575139  0.56520041  0.56153957     0.61510
F1287       F  0.72065078  0.47725855  0.63489483    -0.23660
F1288       F  0.73192429  0.53404387  0.66670714    -0.20990
F1289       F  0.75410796  0.49342696  0.69772645    -0.20670
F1290       F  0.91754297  0.59561355  0.53157737    -0.20720
F1291       F  0.89752792  0.53053760  0.54018475    -0.21040
F1292       F  0.93910497  0.57407556  0.58911986    -0.23710
C1293       C  0.72642639  0.51171300  0.12477560    -0.06550
C1294       C  0.70745776  0.52922098  0.15079775    -0.00630
C1295       C  0.68875999  0.54987136  0.12875096    -0.09200
C1296       C  0.69445614  0.55613592  0.08278183    -0.06570
C1297       C  0.71704528  0.54142921  0.05758379    -0.00640
C1298       C  0.73071714  0.51657999  0.07925852    -0.09110
C1299       C  0.75025478  0.49491507  0.05464777     0.61270
H1300       H  0.73959056  0.49485254  0.14074530     0.11970
H1301       H  0.68278845  0.57407652  0.06654047     0.11980
C1302       C  0.66325729  0.56553162  0.15349358     0.61510
F1303       F  0.74975328  0.46413528  0.07888780    -0.23660
F1304       F  0.79183091  0.52102460  0.04407798    -0.20990
F1305       F  0.72757582  0.47861556  0.01752069    -0.20670
F1306       F  0.68876342  0.59424204  0.18232361    -0.20720
F1307       F  0.63077890  0.53457135  0.17589017    -0.21040
F1308       F  0.64545264  0.58218298  0.12627388    -0.23710
loop_ 
_geom_bond_atom_site_label_1 
_geom_bond_atom_site_label_2 
_geom_bond_distance 
_geom_bond_site_symmetry_2 
_ccdc_geom_bond_type 
N1            N2   1.298       .  A
N1            N7   1.318       .  A
N1          Mn30   2.108       .  S
N2            C9   1.329       .  A
N3            N5   1.312       .  A
N3            N4   1.319       .  A
N3          Mn19   2.165       .  S
N4           C10   1.346       .  A
N5            N6   1.343       .  A
N5          Mn30   2.294       .  S
N6           C10   1.373       .  A
N7            N8   1.334       .  A
N7          Mn19   2.276       .  S
N8            C9   1.368       .  A
C9         C1265   1.461       .  S
C10        C1278   1.539       .  S
N11          N17   1.327       .  A
N11          N12   1.313       .  A
N11         Mn41   2.188       .  S
N12          C20   1.346       .  A
N13          N14   1.320       .  A
N13          N15   1.317       .  A
N13         Mn19   2.183       .  S
N14          C21   1.348       .  A
N15          N16   1.328       .  A
N15         Mn41   2.227       .  S
N16          C21   1.355       .  A
N17          N18   1.322       .  A
N17         Mn19   2.230       .  S
N18          C20   1.350       .  A
Mn19        Cl43   2.543       .  S
C20        C1182   1.459       .  S
C21        C1214   1.489       .  S
N22          N23   1.305       .  A
N22          N28   1.322       .  A
N22         Mn30   2.149       .  S
N23          C31   1.336       .  A
N24          N26   1.311       .  A
N24          N25   1.317       .  A
N24         Mn42   2.170       .  S
N25          C32   1.349       .  A
N26          N27   1.324       .  A
N26         Mn30   2.205       .  S
N27          C32   1.355       .  A
N28          N29   1.327       .  A
N28         Mn42   2.261       .  S
N29          C31   1.364       .  A
Mn30        Cl43   2.547       .  S
C31        C1201   1.480       .  S
C32        C1249   1.494       .  S
N33          N34   1.305       .  A
N33          N39   1.320       .  A
N33         Mn41   2.133       .  S
N34          C44   1.338       .  A
N35          N36   1.323       .  A
N35          N37   1.317       .  A
N35         Mn42   2.173       .  S
N36          C45   1.347       .  A
N37          N38   1.341       .  A
N37         Mn41   2.278       .  S
N38          C45   1.367       .  A
N39          N40   1.330       .  A
N39         Mn42   2.273       .  S
N40          C44   1.364       .  A
Mn41        Cl43   2.550       .  S
Mn42        Cl43   2.533       .  S
C44        C1230   1.461       .  S
C45        C1294   1.537       .  S
N46          N47   1.330       .  A
N46          N52   1.313       .  A
N46         Mn75   2.231       .  S
N47          C54   1.360       .  A
N48          N50   1.322       .  A
N48          N49   1.329       .  A
N48         Mn64   2.263       .  S
N49          C55   1.363       .  A
N50          N51   1.307       .  A
N50         Mn75   2.164       .  S
N51          C55   1.339       .  A
N52          N53   1.307       .  A
N52         Mn64   2.127       .  S
N53          C54   1.335       .  A
C54        C1134   1.460       .  S
C55        C1086   1.479       .  S
N56          N62   1.316       .  A
N56          N57   1.347       .  A
N56         Mn86   2.334       .  S
N57          C65   1.378       .  A
N58          N59   1.329       .  A
N58          N60   1.317       .  A
N58         Mn64   2.268       .  S
N59          C66   1.364       .  A
N60          N61   1.309       .  A
N60         Mn86   2.147       .  S
N61          C66   1.341       .  A
N62          N63   1.317       .  A
N62         Mn64   2.166       .  S
N63          C65   1.344       .  A
Mn64        Cl88   2.516       .  S
C65        C1281   1.544       .  S
C66        C1153   1.473       .  S
N67          N68   1.342       .  A
N67          N73   1.316       .  A
N67         Mn75   2.296       .  S
N68          C76   1.372   1_556  A
N69          N71   1.312       .  A
N69          N70   1.328       .  A
N69         Mn87   2.233       .  S
N70          C77   1.361       .  A
N71          N72   1.304       .  A
N71         Mn75   2.133       .  S
N72          C77   1.344       .  A
N73          N74   1.321       .  A
N73         Mn87   2.189       .  S
N74          C76   1.348   1_556  A
Mn75        Cl88   2.581       .  S
C76        C1297   1.535       .  S
C77        C1118   1.475       .  S
N78          N79   1.338       .  A
N78          N84   1.309       .  A
N78         Mn86   2.269       .  S
N79          C89   1.373       .  A
N80          N81   1.322       .  A
N80          N82   1.323       .  A
N80         Mn87   2.238       .  S
N81          C90   1.356       .  A
N82          N83   1.311       .  A
N82         Mn86   2.171       .  S
N83          C90   1.345       .  A
N84          N85   1.304       .  A
N84         Mn87   2.115       .  S
N85          C89   1.329       .  A
Mn86        Cl88   2.589       .  S
Mn87        Cl88   2.503       .  S
C89        C1166   1.497       .  S
C90        C1102   1.477       .  S
N91          N92   1.317       .  A
N91          N97   1.309       .  A
N91        Mn120   2.161       .  S
N92          C99   1.344       .  A
N93          N95   1.313       .  A
N93          N94   1.322       .  A
N93        Mn109   2.196       .  S
N94         C100   1.349       .  A
N95          N96   1.328       .  A
N95        Mn120   2.224       .  S
N96         C100   1.358       .  A
N97          N98   1.326       .  A
N97        Mn109   2.233       .  S
N98          C99   1.366       .  A
C99        C1169   1.499   1_554  S
C100       C1038   1.494   1_565  S
N101        N107   1.314       .  A
N101        N102   1.319       .  A
N101       Mn131   2.189       .  S
N102        C110   1.353       .  A
N103        N104   1.315       .  A
N103        N105   1.319       .  A
N103       Mn109   2.180       .  S
N104        C111   1.346       .  A
N105        N106   1.325       .  A
N105       Mn131   2.227       .  S
N106        C111   1.355       .  A
N107        N108   1.314       .  A
N107       Mn109   2.184       .  S
N108        C110   1.350       .  A
Mn109      Cl133   2.534       .  S
C110       C1070   1.477       .  S
C111       C1246   1.470       .  S
N112        N113   1.308       .  A
N112        N118   1.312       .  A
N112       Mn120   2.133       .  S
N113        C121   1.336       .  A
N114        N116   1.317       .  A
N114        N115   1.322       .  A
N114       Mn132   2.210   1_556  S
N115        C122   1.356       .  A
N116        N117   1.315       .  A
N116       Mn120   2.190   1_556  S
N117        C122   1.347       .  A
N118        N119   1.339       .  A
N118       Mn132   2.296       .  S
N119        C121   1.375       .  A
Mn120      Cl133   2.538       .  S
C121       C1025   1.509   1_565  S
C122       C1054   1.464       .  S
N123        N124   1.321       .  A
N123        N129   1.320       .  A
N123       Mn131   2.189       .  S
N124        C134   1.349       .  A
N125        N126   1.310       .  A
N125        N127   1.317       .  A
N125       Mn132   2.176       .  S
N126        C135   1.343       .  A
N127        N128   1.326       .  A
N127       Mn131   2.227       .  S
N128        C135   1.357       .  A
N129        N130   1.339       .  A
N129       Mn132   2.324       .  S
N130        C134   1.373       .  A
Mn131      Cl133   2.553       .  S
Mn132      Cl133   2.544       .  S
C134       C1009   1.527       .  S
C135        C993   1.478       .  S
N136        N137   1.337       .  A
N136        N142   1.312       .  A
N136       Mn165   2.269       .  S
N137        C144   1.372       .  A
N138        N140   1.314       .  A
N138        N139   1.316       .  A
N138       Mn154   2.187       .  S
N139        C145   1.350       .  A
N140        N141   1.316       .  A
N140       Mn165   2.177       .  S
N141        C145   1.352       .  A
N142        N143   1.296       .  A
N142       Mn154   2.087       .  S
N143        C144   1.326       .  A
C144       C1262   1.467       .  S
C145       C1073   1.474       .  S
N146        N152   1.308       .  A
N146        N147   1.332       .  A
N146       Mn176   2.258       .  S
N147        C155   1.367       .  A
N148        N149   1.320       .  A
N148        N150   1.309       .  A
N148       Mn154   2.194       .  S
N149        C156   1.351       .  A
N150        N151   1.322       .  A
N150       Mn176   2.194       .  S
N151        C156   1.356       .  A
N152        N153   1.309       .  A
N152       Mn154   2.118       .  S
N153        C155   1.340       .  A
Mn154      Cl178   2.508       .  S
C155        C958   1.481   1_565  S
C156       C1150   1.474       .  S
N157        N158   1.328       .  A
N157        N163   1.322       .  A
N157       Mn165   2.265       .  S
N158        C166   1.360       .  A
N159        N161   1.314       .  A
N159        N160   1.322       .  A
N159       Mn177   2.216       .  S
N160        C167   1.354       .  A
N161        N162   1.316       .  A
N161       Mn165   2.169       .  S
N162        C167   1.348       .  A
N163        N164   1.321       .  A
N163       Mn177   2.201       .  S
N164        C166   1.351       .  A
Mn165      Cl178   2.558       .  S
C166        C926   1.493       .  S
C167        C942   1.472       .  S
N168        N169   1.331       .  A
N168        N174   1.316       .  A
N168       Mn176   2.270       .  S
N169        C179   1.367       .  A
N170        N171   1.336       .  A
N170        N172   1.314       .  A
N170       Mn177   2.264       .  S
N171        C180   1.368       .  A
N172        N173   1.299       .  A
N172       Mn176   2.127       .  S
N173        C180   1.336       .  A
N174        N175   1.307       .  A
N174       Mn177   2.137       .  S
N175        C179   1.334       .  A
Mn176      Cl178   2.541       .  S
Mn177      Cl178   2.516       .  S
C179       C1057   1.479       .  S
C180        C977   1.502       .  S
N181        N182   1.327       .  A
N181        N187   1.324       .  A
N181       Mn210   2.260       .  S
N182        C189   1.359       .  A
N183        N185   1.308       .  A
N183        N184   1.328       .  A
N183       Mn199   2.224       .  S
N184        C190   1.361       .  A
N185        N186   1.309       .  A
N185       Mn210   2.128       .  S
N186        C190   1.342       .  A
N187        N188   1.330       .  A
N187       Mn199   2.268       .  S
N188        C189   1.364       .  A
C189       C1006   1.523       .  S
C190        C878   1.483       .  S
N191        N197   1.317       .  A
N191        N192   1.338       .  A
N191       Mn221   2.293       .  S
N192        C200   1.373       .  A
N193        N194   1.335       .  A
N193        N195   1.314       .  A
N193       Mn199   2.261       .  S
N194        C201   1.370       .  A
N195        N196   1.310       .  A
N195       Mn221   2.136       .  S
N196        C201   1.331       .  A
N197        N198   1.310       .  A
N197       Mn199   2.170       .  S
N198        C200   1.345       .  A
Mn199      Cl223   2.594       .  S
C200        C913   1.513       .  S
C201        C897   1.485   1_554  S
N202        N203   1.337       .  A
N202        N208   1.320       .  A
N202       Mn210   2.279       .  S
N203        C211   1.367       .  A
N204        N206   1.309       .  A
N204        N205   1.340       .  A
N204       Mn222   2.274       .  S
N205        C212   1.374       .  A
N206        N207   1.313       .  A
N206       Mn210   2.164       .  S
N207        C212   1.342       .  A
N208        N209   1.311       .  A
N208       Mn222   2.176       .  S
N209        C211   1.341       .  A
Mn210      Cl223   2.493       .  S
C211        C833   1.512       .  S
C212        C814   1.527       .  S
N213        N214   1.315   1_554  A
N213        N219   1.320       .  A
N213       Mn221   2.225       .  S
N214        C224   1.349       .  A
N215        N216   1.327       .  A
N215        N217   1.318       .  A
N215       Mn222   2.255       .  S
N216        C225   1.357       .  A
N217        N218   1.322       .  A
N217       Mn221   2.159       .  S
N218        C225   1.344       .  A
N219        N220   1.315   1_554  A
N219       Mn222   2.157       .  S
N220        C224   1.348       .  A
Mn221      Cl223   2.485       .  S
Mn222      Cl223   2.597       .  S
C224        C862   1.450       .  S
C225        C849   1.494       .  S
N226        N227   1.319       .  A
N226        N232   1.314       .  A
N226       Mn255   2.190       .  S
N227        C234   1.349       .  A
N228        N230   1.318       .  A
N228        N229   1.303       .  A
N228       Mn244   2.131       .  S
N229        C235   1.331       .  A
N230        N231   1.335       .  A
N230       Mn255   2.275       .  S
N231        C235   1.370       .  A
N232        N233   1.326       .  A
N232       Mn244   2.218       .  S
N233        C234   1.357       .  A
C234        C801   1.480       .  S
C235        C782   1.474       .  S
N236        N242   1.310       .  A
N236        N237   1.318       .  A
N236       Mn266   2.184       .  S
N237        C245   1.353       .  A
N238        N239   1.314       .  A
N238        N240   1.314       .  A
N238       Mn244   2.165       .  S
N239        C246   1.349       .  A
N240        N241   1.323       .  A
N240       Mn266   2.224       .  S
N241        C246   1.358       .  A
N242        N243   1.319       .  A
N242       Mn244   2.182       .  S
N243        C245   1.351       .  A
Mn244      Cl268   2.503       .  S
C245        C881   1.482       .  S
C246        C945   1.484       .  S
N247        N248   1.329       .  A
N247        N253   1.321       .  A
N247       Mn255   2.240       .  S
N248        C256   1.360       .  A
N249        N251   1.317       .  A
N249        N250   1.315       .  A
N249       Mn267   2.174       .  S
N250        C257   1.347       .  A
N251        N252   1.317       .  A
N251       Mn255   2.200       .  S
N252        C257   1.351       .  A
N253        N254   1.313       .  A
N253       Mn267   2.174       .  S
N254        C256   1.339       .  A
Mn255      Cl268   2.572       .  S
C256        C753   1.487       .  S
C257        C865   1.455       .  S
N258        N259   1.318       .  A
N258        N264   1.311       .  A
N258       Mn266   2.188       .  S
N259        C269   1.351       .  A
N260        N261   1.315       .  A
N260        N262   1.315       .  A
N260       Mn267   2.179       .  S
N261        C270   1.346       .  A
N262        N263   1.330       .  A
N262       Mn266   2.246       .  S
N263        C270   1.362       .  A
N264        N265   1.321       .  A
N264       Mn267   2.186       .  S
N265        C269   1.352       .  A
Mn266      Cl268   2.560       .  S
Mn267      Cl268   2.508       .  S
C269        C734   1.469       .  S
C270        C766   1.485       .  S
N271        N272   1.316       .  A
N271        N277   1.314       .  A
N271       Mn300   2.181       .  S
N272        C279   1.349       .  A
N273        N275   1.322       .  A
N273        N274   1.304       .  A
N273       Mn289   2.153       .  S
N274        C280   1.338       .  A
N275        N276   1.336       .  A
N275       Mn300   2.269       .  S
N276        C280   1.366       .  A
N277        N278   1.330       .  A
N277       Mn289   2.224       .  S
N278        C279   1.359       .  A
C279        C769   1.505       .  S
C280        C830   1.483       .  S
N281        N287   1.311       .  A
N281        N282   1.314       .  A
N281       Mn311   2.160       .  S
N282        C290   1.348       .  A
N283        N284   1.312       .  A
N283        N285   1.318       .  A
N283       Mn289   2.173       .  S
N284        C291   1.345       .  A
N285        N286   1.323       .  A
N285       Mn311   2.212       .  S
N286        C291   1.354       .  A
N287        N288   1.325       .  A
N287       Mn289   2.215       .  S
N288        C290   1.357       .  A
Mn289      Cl313   2.532       .  S
C290        C718   1.484       .  S
C291       C1185   1.460       .  S
N292        N293   1.327       .  A
N292        N298   1.324       .  A
N292       Mn300   2.218       .  S
N293        C301   1.352       .  A
N294        N296   1.319       .  A
N294        N295   1.321       .  A
N294       Mn312   2.214       .  S
N295        C302   1.356       .  A
N296        N297   1.316       .  A
N296       Mn300   2.200       .  S
N297        C302   1.349       .  A
N298        N299   1.316       .  A
N298       Mn312   2.184       .  S
N299        C301   1.342       .  A
Mn300      Cl313   2.547       .  S
C301        C961   1.483       .  S
C302        C702   1.485       .  S
N303        N304   1.317       .  A
N303        N309   1.310       .  A
N303       Mn311   2.173       .  S
N304        C314   1.348       .  A
N305        N306   1.323       .  A
N305        N307   1.318       .  A
N305       Mn312   2.227       .  S
N306        C315   1.355       .  A
N307        N308   1.327       .  A
N307       Mn311   2.231       .  S
N308        C315   1.357       .  A
N309        N310   1.326       .  A
N309       Mn312   2.208       .  S
N310        C314   1.356       .  A
Mn311      Cl313   2.548       .  S
Mn312      Cl313   2.533       .  S
C314        C686   1.477       .  S
C315       C1041   1.494       .  S
N316        N317   1.317       .  A
N316        N322   1.315       .  A
N316       Mn345   2.204       .  S
N317        C324   1.351       .  A
N318        N320   1.315       .  A
N318        N319   1.319       .  A
N318       Mn334   2.210       .  S
N319        C325   1.350   1_556  A
N320        N321   1.321       .  A
N320       Mn345   2.190       .  S
N321        C325   1.354   1_556  A
N322        N323   1.322       .  A
N322       Mn334   2.194       .  S
N323        C324   1.355       .  A
C324       C1089   1.466       .  S
C325        C721   1.476       .  S
N326        N332   1.319       .  A
N326        N327   1.335       .  A
N326       Mn356   2.276       .  S
N327        C335   1.370       .  A
N328        N329   1.329       .  A
N328        N330   1.315       .  A
N328       Mn334   2.235       .  S
N329        C336   1.362       .  A
N330        N331   1.314       .  A
N330       Mn356   2.169       .  S
N331        C336   1.341       .  A
N332        N333   1.308       .  A
N332       Mn334   2.156       .  S
N333        C335   1.337       .  A
Mn334      Cl358   2.523       .  S
C335        C846   1.483       .  S
C336        C750   1.475       .  S
N337        N338   1.334       .  A
N337        N343   1.312       .  A
N337       Mn345   2.266       .  S
N338        C346   1.370       .  A
N339        N341   1.308       .  A
N339        N340   1.317       .  A
N339       Mn357   2.156       .  S
N340        C347   1.352       .  A
N341        N342   1.317       .  A
N341       Mn345   2.187       .  S
N342        C347   1.354       .  A
N343        N344   1.311       .  A
N343       Mn357   2.148       .  S
N344        C346   1.339       .  A
Mn345      Cl358   2.541       .  S
C346       C1022   1.488       .  S
C347        C670   1.469       .  S
N348        N349   1.321       .  A
N348        N354   1.312       .  A
N348       Mn356   2.209       .  S
N349        C359   1.358       .  A
N350        N351   1.309       .  A
N350        N352   1.317       .  A
N350       Mn357   2.157       .  S
N351        C360   1.337       .  A
N352        N353   1.327       .  A
N352       Mn356   2.236       .  S
N353        C360   1.362       .  A
N354        N355   1.317       .  A
N354       Mn357   2.178       .  S
N355        C359   1.349       .  A
Mn356      Cl358   2.557       .  S
Mn357      Cl358   2.506       .  S
C359        C705   1.494       .  S
C360        C974   1.484       .  S
N361        N362   1.333       .  A
N361        N367   1.317       .  A
N361       Mn390   2.264       .  S
N362        C369   1.367       .  A
N363        N365   1.312       .  A
N363        N364   1.319       .  A
N363       Mn379   2.182       .  S
N364        C370   1.353       .  A
N365        N366   1.307       .  A
N365       Mn390   2.139       .  S
N366        C370   1.338       .  A
N367        N368   1.305       .  A
N367       Mn379   2.141       .  S
N368        C369   1.336       .  A
C369       C1233   1.472       .  S
C370        C657   1.453       .  S
N371        N377   1.315       .  A
N371        N372   1.324       .  A
N371       Mn401   2.221       .  S
N372        C380   1.351       .  A
N373        N374   1.316       .  A
N373        N375   1.308       .  A
N373       Mn379   2.176       .  S
N374        C381   1.348       .  A
N375        N376   1.320       .  A
N375       Mn401   2.179       .  S
N376        C381   1.354       .  A
N377        N378   1.318       .  A
N377       Mn379   2.182       .  S
N378        C380   1.350       .  A
Mn379      Cl403   2.537       .  S
C380        C606   1.489   1_565  S
C381       C1121   1.464       .  S
N382        N383   1.327       .  A
N382        N388   1.317       .  A
N382       Mn390   2.239       .  S
N383        C391   1.358       .  A
N384        N386   1.316       .  A
N384        N385   1.332       .  A
N384       Mn402   2.280       .  S
N385        C392   1.364       .  A
N386        N387   1.322       .  A
N386       Mn390   2.187       .  S
N387        C392   1.352       .  A
N388        N389   1.309       .  A
N388       Mn402   2.161       .  S
N389        C391   1.348       .  A
Mn390      Cl403   2.538       .  S
C391        C990   1.473       .  S
C392        C817   1.503       .  S
N393        N394   1.323       .  A
N393        N399   1.314       .  A
N393       Mn401   2.219   1_556  S
N394        C404   1.361       .  A
N395        N396   1.345       .  A
N395        N397   1.310       .  A
N395       Mn402   2.309       .  S
N396        C405   1.382       .  A
N397        N398   1.301       .  A
N397       Mn401   2.112       .  S
N398        C405   1.325       .  A
N399        N400   1.303       .  A
N399       Mn402   2.132   1_556  S
N400        C404   1.339       .  A
Mn401      Cl403   2.531       .  S
Mn402      Cl403   2.532       .  S
C404        C641   1.463       .  S
C405        C622   1.517   1_565  S
N406        N407   1.313       .  A
N406        N412   1.311       .  A
N406       Mn435   2.156       .  S
N407        C414   1.340       .  A
N408        N410   1.304       .  A
N408        N409   1.313       .  A
N408       Mn424   2.160       .  S
N409        C415   1.349       .  A
N410        N411   1.320       .  A
N410       Mn435   2.170       .  S
N411        C415   1.356       .  A
N412        N413   1.325       .  A
N412       Mn424   2.213       .  S
N413        C414   1.360       .  A
C414       C1137   1.470       .  S
C415        C590   1.479       .  S
N416        N422   1.316       .  A
N416        N417   1.311       .  A
N416       Mn446   2.145       .  S
N417        C425   1.346       .  A
N418        N419   1.312       .  A
N418        N420   1.316       .  A
N418       Mn424   2.147       .  S
N419        C426   1.339       .  A
N420        N421   1.331       .  A
N420       Mn446   2.251       .  S
N421        C426   1.361       .  A
N422        N423   1.313       .  A
N422       Mn424   2.196       .  S
N423        C425   1.349       .  A
Mn424      Cl448   2.511       .  S
C425        C654   1.436       .  S
C426       C1217   1.480       .  S
N427        N428   1.307       .  A
N427        N433   1.321       .  A
N427       Mn435   2.151       .  S
N428        C436   1.335       .  A
N429        N431   1.309       .  A
N429        N430   1.310       .  A
N429       Mn447   2.129       .  S
N430        C437   1.343       .  A
N431        N432   1.314       .  A
N431       Mn435   2.173       .  S
N432        C437   1.349       .  A
N433        N434   1.333       .  A
N433       Mn447   2.274       .  S
N434        C436   1.367       .  A
Mn435      Cl448   2.513       .  S
C436        C577   1.499   1_565  S
C437        C638   1.458       .  S
N438        N439   1.310       .  A
N438        N444   1.318       .  A
N438       Mn446   2.155       .  S
N439        C449   1.345       .  A
N440        N441   1.323       .  A
N440        N442   1.320       .  A
N440       Mn447   2.207       .  S
N441        C450   1.353       .  A
N442        N443   1.327       .  A
N442       Mn446   2.247       .  S
N443        C450   1.357       .  A
N444        N445   1.328       .  A
N444       Mn447   2.253       .  S
N445        C449   1.360       .  A
Mn446      Cl448   2.539       .  S
Mn447      Cl448   2.547       .  S
C449        C737   1.476       .  S
C450        C929   1.498       .  S
N451        N452   1.317       .  A
N451        N457   1.320       .  A
N451       Mn480   2.191       .  S
N452        C459   1.346       .  A
N453        N455   1.311       .  A
N453        N454   1.326       .  A
N453       Mn469   2.223       .  S
N454        C460   1.362       .  A
N455        N456   1.309       .  A
N455       Mn480   2.140       .  S
N456        C460   1.339       .  A
N457        N458   1.317       .  A
N457       Mn469   2.198       .  S
N458        C459   1.350       .  A
C459       C1198   1.458       .  S
C460        C558   1.481       .  S
N461        N467   1.317       .  A
N461        N462   1.334       .  A
N461       Mn491   2.270       .  S
N462        C470   1.368       .  A
N463        N464   1.335       .  A
N463        N465   1.312       .  A
N463       Mn469   2.271       .  S
N464        C471   1.371       .  A
N465        N466   1.306       .  A
N465       Mn491   2.116       .  S
N466        C471   1.332       .  A
N467        N468   1.313       .  A
N467       Mn469   2.175       .  S
N468        C470   1.344       .  A
Mn469      Cl493   2.555       .  S
C470        C910   1.492   1_655  S
C471        C785   1.479       .  S
N472        N473   1.325       .  A
N472        N478   1.316       .  A
N472       Mn480   2.210       .  S
N473        C481   1.354       .  A
N474        N476   1.311       .  A
N474        N475   1.327       .  A
N474       Mn492   2.215       .  S
N475        C482   1.359       .  A
N476        N477   1.315       .  A
N476       Mn480   2.170       .  S
N477        C482   1.347       .  A
N478        N479   1.315       .  A
N478       Mn492   2.184       .  S
N479        C481   1.350       .  A
Mn480      Cl493   2.506       .  S
C481        C609   1.483       .  S
C482        C689   1.478       .  S
N483        N484   1.320       .  A
N483        N489   1.316       .  A
N483       Mn491   2.232       .  S
N484        C494   1.354       .  A
N485        N486   1.317       .  A
N485        N487   1.317       .  A
N485       Mn492   2.208       .  S
N486        C495   1.351       .  A
N487        N488   1.317       .  A
N487       Mn491   2.161       .  S
N488        C495   1.345       .  A
N489        N490   1.322       .  A
N489       Mn492   2.193       .  S
N490        C494   1.356       .  A
Mn491      Cl493   2.510       .  S
Mn492      Cl493   2.557       .  S
C494        C542   1.495       .  S
C495        C593   1.462       .  S
N496        N497   1.318       .  A
N496        N502   1.312       .  A
N496       Mn525   2.186       .  S
N497        C504   1.351       .  A
N498        N500   1.317       .  A
N498        N499   1.305       .  A
N498       Mn514   2.129       .  S
N499        C505   1.328       .  A
N500        N501   1.337       .  A
N500       Mn525   2.291       .  S
N501        C505   1.373       .  A
N502        N503   1.324       .  A
N502       Mn514   2.214       .  S
N503        C504   1.357       .  A
C504        C798   1.488       .  S
C505        C894   1.481       .  S
N506        N512   1.311       .  A
N506        N507   1.322       .  A
N506       Mn536   2.203       .  S
N507        C515   1.361   1_556  A
N508        N509   1.308       .  A
N508        N510   1.312       .  A
N508       Mn514   2.137       .  S
N509        C516   1.342       .  A
N510        N511   1.324       .  A
N510       Mn536   2.218       .  S
N511        C516   1.359       .  A
N512        N513   1.314       .  A
N512       Mn514   2.170       .  S
N513        C515   1.344   1_556  A
Mn514      Cl538   2.466       .  S
C515        C561   1.486       .  S
C516       C1105   1.466       .  S
N517        N518   1.333       .  A
N517        N523   1.321       .  A
N517       Mn525   2.266       .  S
N518        C526   1.365       .  A
N519        N521   1.313       .  A
N519        N520   1.323       .  A
N519       Mn537   2.223       .  S
N520        C527   1.355       .  A
N521        N522   1.320       .  A
N521       Mn525   2.186       .  S
N522        C527   1.355       .  A
N523        N524   1.308       .  A
N523       Mn537   2.165       .  S
N524        C526   1.334       .  A
Mn525      Cl538   2.599       .  S
C526        C574   1.504       .  S
C527        C545   1.497       .  S
N528        N529   1.319       .  A
N528        N534   1.312       .  A
N528       Mn536   2.206       .  S
N529        C539   1.357       .  A
N530        N531   1.315       .  A
N530        N532   1.312       .  A
N530       Mn537   2.183       .  S
N531        C540   1.347       .  A
N532        N533   1.332       .  A
N532       Mn536   2.243       .  S
N533        C540   1.366       .  A
N534        N535   1.313       .  A
N534       Mn537   2.146       .  S
N535        C539   1.344       .  A
Mn536      Cl538   2.584       .  S
Mn537      Cl538   2.468       .  S
C539        C673   1.465       .  S
C540        C625   1.487       .  S
C541        C542   1.405       .  A
C541        C546   1.412       .  A
C541        H548   1.082       .  S
C542        C543   1.422       .  A
C543        C544   1.408       .  A
C543        C550   1.519       .  S
C544        C545   1.405       .  A
C544        H549   1.083       .  S
C545        C546   1.423       .  A
C546        C547   1.517       .  S
C547        F551   1.385       .  S
C547        F552   1.381       .  S
C547        F553   1.381       .  S
C550        F554   1.383       .  S
C550        F555   1.382       .  S
C550        F556   1.384       .  S
C557        C558   1.399       .  A
C557        C562   1.407       .  A
C557        H564   1.082       .  S
C558        C559   1.425       .  A
C559        C560   1.400       .  A
C559        C566   1.524       .  S
C560        C561   1.399       .  A
C560        H565   1.082       .  S
C561        C562   1.428       .  A
C562        C563   1.521       .  S
C563        F567   1.385       .  S
C563        F568   1.383       .  S
C563        F569   1.382       .  S
C566        F570   1.383       .  S
C566        F571   1.383       .  S
C566        F572   1.385       .  S
C573        C574   1.418       .  A
C573        C578   1.413       .  A
C573        H580   1.083       .  S
C574        C575   1.417       .  A
C575        C576   1.410       .  A
C575        C582   1.518       .  S
C576        C577   1.414       .  A
C576        H581   1.083       .  S
C577        C578   1.416       .  A
C578        C579   1.519   1_545  S
C579        F583   1.385       .  S
C579        F584   1.383       .  S
C579        F585   1.384       .  S
C582        F586   1.383       .  S
C582        F587   1.379       .  S
C582        F588   1.385       .  S
C589        C590   1.413       .  A
C589        C594   1.403       .  A
C589        H596   1.083       .  S
C590        C591   1.419   1_565  A
C591        C592   1.400       .  A
C591        C598   1.522       .  S
C592        C593   1.404       .  A
C592        H597   1.084       .  S
C593        C594   1.401   1_545  A
C594        C595   1.514       .  S
C595        F599   1.384       .  S
C595        F600   1.383   1_565  S
C595        F601   1.382       .  S
C598        F602   1.383       .  S
C598        F603   1.383       .  S
C598        F604   1.385       .  S
C605        C606   1.405       .  A
C605        C610   1.416       .  A
C605        H612   1.083       .  S
C606        C607   1.421       .  A
C607        C608   1.398       .  A
C607        C614   1.512   1_545  S
C608        C609   1.397       .  A
C608        H613   1.084       .  S
C609        C610   1.421       .  A
C610        C611   1.516       .  S
C611        F615   1.385       .  S
C611        F616   1.383       .  S
C611        F617   1.383       .  S
C614        F618   1.374       .  S
C614        F619   1.384       .  S
C614        F620   1.385       .  S
C621        C622   1.408       .  A
C621        C626   1.422   1_554  A
C621        H628   1.082       .  S
C622        C623   1.449       .  A
C623        C624   1.403   1_554  A
C623        C630   1.531       .  S
C624        C625   1.386       .  A
C624        H629   1.083       .  S
C625        C626   1.413       .  A
C626        C627   1.504       .  S
C627        F631   1.384       .  S
C627        F632   1.383       .  S
C627        F633   1.384   1_556  S
C630        F634   1.384   1_554  S
C630        F635   1.380       .  S
C630        F636   1.386   1_554  S
C637        C638   1.407       .  A
C637        C642   1.399       .  A
C637        H644   1.083       .  S
C638        C639   1.416       .  A
C639        C640   1.388       .  A
C639        C646   1.527       .  S
C640        C641   1.407       .  A
C640        H645   1.081       .  S
C641        C642   1.406       .  A
C642        C643   1.515       .  S
C643        F647   1.382       .  S
C643        F648   1.383       .  S
C643        F649   1.380       .  S
C646        F650   1.383       .  S
C646        F651   1.384       .  S
C646        F652   1.385       .  S
C653        C654   1.393       .  A
C653        C658   1.389       .  A
C653        H660   1.083       .  S
C654        C655   1.402       .  A
C655        C656   1.395       .  A
C655        C662   1.515       .  S
C656        C657   1.403       .  A
C656        H661   1.073       .  S
C657        C658   1.421       .  A
C658        C659   1.526       .  S
C659        F663   1.385       .  S
C659        F664   1.384       .  S
C659        F665   1.383       .  S
C662        F666   1.380       .  S
C662        F667   1.383       .  S
C662        F668   1.384       .  S
C669        C670   1.397       .  A
C669        C674   1.402       .  A
C669        H676   1.083       .  S
C670        C671   1.406       .  A
C671        C672   1.395       .  A
C671        C678   1.507       .  S
C672        C673   1.402       .  A
C672        H677   1.085       .  S
C673        C674   1.424       .  A
C674        C675   1.520       .  S
C675        F679   1.385       .  S
C675        F680   1.384       .  S
C675        F681   1.380       .  S
C678        F682   1.383       .  S
C678        F683   1.383       .  S
C678        F684   1.383       .  S
C685        C686   1.402       .  A
C685        C690   1.407       .  A
C685        H692   1.084       .  S
C686        C687   1.416       .  A
C687        C688   1.410       .  A
C687        C694   1.517       .  S
C688        C689   1.403       .  A
C688        H693   1.083       .  S
C689        C690   1.416       .  A
C690        C691   1.518       .  S
C691        F695   1.385       .  S
C691        F696   1.382       .  S
C691        F697   1.383       .  S
C694        F698   1.384       .  S
C694        F699   1.382       .  S
C694        F700   1.385       .  S
C701        C702   1.401       .  A
C701        C706   1.407       .  A
C701        H708   1.082       .  S
C702        C703   1.421       .  A
C703        C704   1.404       .  A
C703        C710   1.522       .  S
C704        C705   1.405       .  A
C704        H709   1.081       .  S
C705        C706   1.427       .  A
C706        C707   1.521       .  S
C707        F711   1.385       .  S
C707        F712   1.383       .  S
C707        F713   1.382       .  S
C710        F714   1.384       .  S
C710        F715   1.383       .  S
C710        F716   1.385       .  S
C717        C718   1.404       .  A
C717        C722   1.402       .  A
C717        H724   1.083       .  S
C718        C719   1.419       .  A
C719        C720   1.411       .  A
C719        C726   1.517       .  S
C720        C721   1.404       .  A
C720        H725   1.083       .  S
C721        C722   1.413       .  A
C722        C723   1.518       .  S
C723        F727   1.383       .  S
C723        F728   1.382       .  S
C723        F729   1.383       .  S
C726        F730   1.383       .  S
C726        F731   1.380       .  S
C726        F732   1.385       .  S
C733        C734   1.404       .  A
C733        C738   1.410       .  A
C733        H740   1.083       .  S
C734        C735   1.414       .  A
C735        C736   1.401       .  A
C735        C742   1.522       .  S
C736        C737   1.404       .  A
C736        H741   1.084       .  S
C737        C738   1.413       .  A
C738        C739   1.514       .  S
C739        F743   1.384       .  S
C739        F744   1.383       .  S
C739        F745   1.383       .  S
C742        F746   1.384       .  S
C742        F747   1.382       .  S
C742        F748   1.385       .  S
C749        C750   1.401       .  A
C749        C754   1.411       .  A
C749        H756   1.083       .  S
C750        C751   1.411       .  A
C751        C752   1.408       .  A
C751        C758   1.517       .  S
C752        C753   1.408       .  A
C752        H757   1.084       .  S
C753        C754   1.423       .  A
C754        C755   1.518       .  S
C755        F759   1.385       .  S
C755        F760   1.383       .  S
C755        F761   1.382       .  S
C758        F762   1.382       .  S
C758        F763   1.383       .  S
C758        F764   1.385       .  S
C765        C766   1.406       .  A
C765        C770   1.422       .  A
C765        H772   1.083       .  S
C766        C767   1.416       .  A
C767        C768   1.399       .  A
C767        C774   1.522       .  S
C768        C769   1.408       .  A
C768        H773   1.084       .  S
C769        C770   1.424       .  A
C770        C771   1.515       .  S
C771        F775   1.385       .  S
C771        F776   1.383       .  S
C771        F777   1.383       .  S
C774        F778   1.382       .  S
C774        F779   1.383       .  S
C774        F780   1.384       .  S
C781        C782   1.413       .  A
C781        C786   1.410   1_455  A
C781        H788   1.084       .  S
C782        C783   1.407       .  A
C783        C784   1.408       .  A
C783        C790   1.515       .  S
C784        C785   1.412   1_455  A
C784        H789   1.084       .  S
C785        C786   1.409       .  A
C786        C787   1.516       .  S
C787        F791   1.385       .  S
C787        F792   1.381       .  S
C787        F793   1.383       .  S
C790        F794   1.383       .  S
C790        F795   1.383       .  S
C790        F796   1.385       .  S
C797        C798   1.405       .  A
C797        C802   1.409   1_655  A
C797        H804   1.083       .  S
C798        C799   1.421       .  A
C799        C800   1.409   1_655  A
C799        C806   1.518       .  S
C800        C801   1.401       .  A
C800        H805   1.084       .  S
C801        C802   1.413       .  A
C802        C803   1.512       .  S
C803        F807   1.385       .  S
C803        F808   1.383       .  S
C803        F809   1.377       .  S
C806        F810   1.384       .  S
C806        F811   1.382       .  S
C806        F812   1.384       .  S
C813        C814   1.413       .  A
C813        C818   1.426       .  A
C813        H820   1.082       .  S
C814        C815   1.440       .  A
C815        C816   1.413       .  A
C815        C822   1.523       .  S
C816        C817   1.395       .  A
C816        H821   1.084       .  S
C817        C818   1.418       .  A
C818        C819   1.513   1_554  S
C819        F823   1.384       .  S
C819        F824   1.383   1_556  S
C819        F825   1.384       .  S
C822        F826   1.383       .  S
C822        F827   1.380       .  S
C822        F828   1.385       .  S
C829        C830   1.392       .  A
C829        C834   1.398       .  A
C829        H836   1.086       .  S
C830        C831   1.419       .  A
C831        C832   1.428       .  A
C831        C838   1.512       .  S
C832        C833   1.415       .  A
C832        H837   1.082       .  S
C833        C834   1.430       .  A
C834        C835   1.521       .  S
C835        F839   1.386       .  S
C835        F840   1.384       .  S
C835        F841   1.368       .  S
C838        F842   1.383       .  S
C838        F843   1.383       .  S
C838        F844   1.382       .  S
C845        C846   1.401       .  A
C845        C850   1.417   1_556  A
C845        H852   1.083       .  S
C846        C847   1.421   1_556  A
C847        C848   1.405       .  A
C847        C854   1.515       .  S
C848        C849   1.398       .  A
C848        H853   1.085       .  S
C849        C850   1.427       .  A
C850        C851   1.518   1_554  S
C851        F855   1.385       .  S
C851        F856   1.383       .  S
C851        F857   1.383   1_556  S
C854        F858   1.381       .  S
C854        F859   1.383       .  S
C854        F860   1.383       .  S
C861        C862   1.398       .  A
C861        C866   1.397       .  A
C861        H868   1.084       .  S
C862        C863   1.410       .  A
C863        C864   1.399       .  A
C863        C870   1.518       .  S
C864        C865   1.401       .  A
C864        H869   1.084       .  S
C865        C866   1.410       .  A
C866        C867   1.514       .  S
C867        F871   1.385       .  S
C867        F872   1.377       .  S
C867        F873   1.383       .  S
C870        F874   1.384       .  S
C870        F875   1.382       .  S
C870        F876   1.385       .  S
C877        C878   1.408       .  A
C877        C882   1.401       .  A
C877        H884   1.083       .  S
C878        C879   1.413       .  A
C879        C880   1.409       .  A
C879        C886   1.516       .  S
C880        C881   1.409       .  A
C880        H885   1.082       .  S
C881        C882   1.418       .  A
C882        C883   1.523       .  S
C883        F887   1.384       .  S
C883        F888   1.384       .  S
C883        F889   1.382       .  S
C886        F890   1.381       .  S
C886        F891   1.383       .  S
C886        F892   1.384       .  S
C893        C894   1.405       .  A
C893        C898   1.414   1_656  A
C893        H900   1.083   1_556  S
C894        C895   1.422   1_655  A
C895        C896   1.413       .  A
C895        C902   1.518       .  S
C896        C897   1.403       .  A
C896        H901   1.083       .  S
C897        C898   1.421   1_556  A
C898        C899   1.519       .  S
C899        F903   1.385   1_455  S
C899        F904   1.382       .  S
C899        F905   1.382       .  S
C902        F906   1.381   1_455  S
C902        F907   1.382       .  S
C902        F908   1.385       .  S
C909        C910   1.410       .  A
C909        C914   1.428       .  A
C909        H916   1.083   1_455  S
C910        C911   1.417       .  A
C911        C912   1.400       .  A
C911        C918   1.524       .  S
C912        C913   1.410       .  A
C912        H917   1.083       .  S
C913        C914   1.422       .  A
C914        C915   1.511       .  S
C915        F919   1.384       .  S
C915        F920   1.384       .  S
C915        F921   1.382       .  S
C918        F922   1.383   1_455  S
C918        F923   1.384   1_455  S
C918        F924   1.382       .  S
C925        C926   1.404       .  A
C925        C930   1.414       .  A
C925        H932   1.083       .  S
C926        C927   1.419       .  A
C927        C928   1.416       .  A
C927        C934   1.519       .  S
C928        C929   1.408       .  A
C928        H933   1.083       .  S
C929        C930   1.418       .  A
C930        C931   1.516       .  S
C931        F935   1.385       .  S
C931        F936   1.383       .  S
C931        F937   1.382       .  S
C934        F938   1.382       .  S
C934        F939   1.384       .  S
C934        F940   1.385       .  S
C941        C942   1.404       .  A
C941        C946   1.409       .  A
C941        H948   1.083       .  S
C942        C943   1.411       .  A
C943        C944   1.400       .  A
C943        C950   1.520       .  S
C944        C945   1.407       .  A
C944        H949   1.083       .  S
C945        C946   1.419       .  A
C946        C947   1.519       .  S
C947        F951   1.385       .  S
C947        F952   1.382       .  S
C947        F953   1.384       .  S
C950        F954   1.382       .  S
C950        F955   1.383       .  S
C950        F956   1.385       .  S
C957        C958   1.411       .  A
C957        C962   1.410       .  A
C957        H964   1.083       .  S
C958        C959   1.413       .  A
C959        C960   1.410       .  A
C959        C966   1.518       .  S
C960        C961   1.410       .  A
C960        H965   1.083       .  S
C961        C962   1.406       .  A
C962        C963   1.514       .  S
C963        F967   1.384       .  S
C963        F968   1.384       .  S
C963        F969   1.383       .  S
C966        F970   1.384       .  S
C966        F971   1.383       .  S
C966        F972   1.385       .  S
C973        C974   1.412   1_565  A
C973        C978   1.416       .  A
C973        H980   1.085       .  S
C974        C975   1.412       .  A
C975        C976   1.396       .  A
C975        C982   1.520       .  S
C976        C977   1.413   1_545  A
C976        H981   1.084       .  S
C977        C978   1.423       .  A
C978        C979   1.513       .  S
C979        F983   1.384       .  S
C979        F984   1.377       .  S
C979        F985   1.381       .  S
C982        F986   1.377       .  S
C982        F987   1.383       .  S
C982        F988   1.385       .  S
C989        C990   1.397       .  A
C989        C994   1.391       .  A
C989        H996   1.084       .  S
C990        C991   1.412       .  A
C991        C992   1.415       .  A
C991        C998   1.513       .  S
C992        C993   1.407       .  A
C992        H997   1.083       .  S
C993        C994   1.426       .  A
C994        C995   1.526       .  S
C995        F999   1.386       .  S
C995       F1000   1.383       .  S
C995       F1001   1.380       .  S
C998       F1002   1.383       .  S
C998       F1003   1.383       .  S
C998       F1004   1.384       .  S
C1005      C1006   1.408       .  A
C1005      C1010   1.423       .  A
C1005      H1012   1.079       .  S
C1006      C1007   1.423       .  A
C1007      C1008   1.424       .  A
C1007      C1014   1.517       .  S
C1008      C1009   1.413       .  A
C1008      H1013   1.082       .  S
C1009      C1010   1.424       .  A
C1010      C1011   1.511       .  S
C1011      F1015   1.385       .  S
C1011      F1016   1.378       .  S
C1011      F1017   1.382       .  S
C1014      F1018   1.383       .  S
C1014      F1019   1.383       .  S
C1014      F1020   1.384       .  S
C1021      C1022   1.393   1_554  A
C1021      C1026   1.410       .  A
C1021      H1028   1.082       .  S
C1022      C1023   1.420       .  A
C1023      C1024   1.418       .  A
C1023      C1030   1.512       .  S
C1024      C1025   1.404   1_556  A
C1024      H1029   1.083   1_545  S
C1025      C1026   1.438       .  A
C1026      C1027   1.521       .  S
C1027      F1031   1.382       .  S
C1027      F1032   1.381       .  S
C1027      F1033   1.383       .  S
C1030      F1034   1.382       .  S
C1030      F1035   1.381       .  S
C1030      F1036   1.383       .  S
C1037      C1038   1.406       .  A
C1037      C1042   1.413       .  A
C1037      H1044   1.084   1_545  S
C1038      C1039   1.415       .  A
C1039      C1040   1.417       .  A
C1039      C1046   1.514       .  S
C1040      C1041   1.407       .  A
C1040      H1045   1.083       .  S
C1041      C1042   1.416       .  A
C1042      C1043   1.517       .  S
C1043      F1047   1.384   1_545  S
C1043      F1048   1.382       .  S
C1043      F1049   1.384       .  S
C1046      F1050   1.383       .  S
C1046      F1051   1.382       .  S
C1046      F1052   1.384       .  S
C1053      C1054   1.390       .  A
C1053      C1058   1.398       .  A
C1053      H1060   1.083       .  S
C1054      C1055   1.412       .  A
C1055      C1056   1.409       .  A
C1055      C1062   1.516       .  S
C1056      C1057   1.402       .  A
C1056      H1061   1.083       .  S
C1057      C1058   1.432       .  A
C1058      C1059   1.525       .  S
C1059      F1063   1.385       .  S
C1059      F1064   1.381       .  S
C1059      F1065   1.383       .  S
C1062      F1066   1.378       .  S
C1062      F1067   1.383       .  S
C1062      F1068   1.384       .  S
C1069      C1070   1.405       .  A
C1069      C1074   1.399       .  A
C1069      H1076   1.081       .  S
C1070      C1071   1.415       .  A
C1071      C1072   1.402       .  A
C1071      C1078   1.518       .  S
C1072      C1073   1.405       .  A
C1072      H1077   1.084       .  S
C1073      C1074   1.420       .  A
C1074      C1075   1.523       .  S
C1075      F1079   1.385       .  S
C1075      F1080   1.383       .  S
C1075      F1081   1.384       .  S
C1078      F1082   1.383       .  S
C1078      F1083   1.383       .  S
C1078      F1084   1.385       .  S
C1085      C1086   1.405       .  A
C1085      C1090   1.412       .  A
C1085      H1092   1.083       .  S
C1086      C1087   1.428       .  A
C1087      C1088   1.394       .  A
C1087      C1094   1.524       .  S
C1088      C1089   1.392       .  A
C1088      H1093   1.084       .  S
C1089      C1090   1.412       .  A
C1090      C1091   1.513       .  S
C1091      F1095   1.384       .  S
C1091      F1096   1.383       .  S
C1091      F1097   1.380       .  S
C1094      F1098   1.383       .  S
C1094      F1099   1.378       .  S
C1094      F1100   1.385       .  S
C1101      C1102   1.402       .  A
C1101      C1106   1.394       .  A
C1101      H1108   1.084       .  S
C1102      C1103   1.420       .  A
C1103      C1104   1.406       .  A
C1103      C1110   1.512       .  S
C1104      C1105   1.400       .  A
C1104      H1109   1.083       .  S
C1105      C1106   1.415       .  A
C1106      C1107   1.520       .  S
C1107      F1111   1.385       .  S
C1107      F1112   1.384       .  S
C1107      F1113   1.383       .  S
C1110      F1114   1.380       .  S
C1110      F1115   1.381       .  S
C1110      F1116   1.385       .  S
C1117      C1118   1.402       .  A
C1117      C1122   1.387   1_556  A
C1117      H1124   1.082       .  S
C1118      C1119   1.416       .  A
C1119      C1120   1.414   1_556  A
C1119      C1126   1.514       .  S
C1120      C1121   1.405       .  A
C1120      H1125   1.083       .  S
C1121      C1122   1.414       .  A
C1122      C1123   1.523       .  S
C1123      F1127   1.385       .  S
C1123      F1128   1.373   1_554  S
C1123      F1129   1.377       .  S
C1126      F1130   1.383       .  S
C1126      F1131   1.382   1_556  S
C1126      F1132   1.385   1_556  S
C1133      C1134   1.402       .  A
C1133      C1138   1.407       .  A
C1133      H1140   1.083       .  S
C1134      C1135   1.413       .  A
C1135      C1136   1.403       .  A
C1135      C1142   1.519       .  S
C1136      C1137   1.402       .  A
C1136      H1141   1.084       .  S
C1137      C1138   1.416       .  A
C1138      C1139   1.518       .  S
C1139      F1143   1.384       .  S
C1139      F1144   1.382       .  S
C1139      F1145   1.384       .  S
C1142      F1146   1.383       .  S
C1142      F1147   1.383       .  S
C1142      F1148   1.385       .  S
C1149      C1150   1.397   1_655  A
C1149      C1154   1.402       .  A
C1149      H1156   1.084   1_655  S
C1150      C1151   1.414   1_455  A
C1151      C1152   1.413       .  A
C1151      C1158   1.514       .  S
C1152      C1153   1.404       .  A
C1152      H1157   1.083       .  S
C1153      C1154   1.420       .  A
C1154      C1155   1.523       .  S
C1155      F1159   1.374       .  S
C1155      F1160   1.383       .  S
C1155      F1161   1.381       .  S
C1158      F1162   1.384       .  S
C1158      F1163   1.383   1_655  S
C1158      F1164   1.384       .  S
C1165      C1166   1.401   1_455  A
C1165      C1170   1.418       .  A
C1165      H1172   1.083       .  S
C1166      C1167   1.434       .  A
C1167      C1168   1.403   1_656  A
C1167      C1174   1.528   1_556  S
C1168      C1169   1.396   1_554  A
C1168      H1173   1.082       .  S
C1169      C1170   1.431       .  A
C1170      C1171   1.521       .  S
C1171      F1175   1.385       .  S
C1171      F1176   1.381       .  S
C1171      F1177   1.383       .  S
C1174      F1178   1.383   1_554  S
C1174      F1179   1.383       .  S
C1174      F1180   1.381       .  S
C1181      C1182   1.396       .  A
C1181      C1186   1.402       .  A
C1181      H1188   1.084       .  S
C1182      C1183   1.417       .  A
C1183      C1184   1.398       .  A
C1183      C1190   1.518       .  S
C1184      C1185   1.396       .  A
C1184      H1189   1.085       .  S
C1185      C1186   1.417       .  A
C1186      C1187   1.517       .  S
C1187      F1191   1.385       .  S
C1187      F1192   1.383       .  S
C1187      F1193   1.382       .  S
C1190      F1194   1.384       .  S
C1190      F1195   1.383       .  S
C1190      F1196   1.384       .  S
C1197      C1198   1.388       .  A
C1197      C1202   1.398       .  A
C1197      H1204   1.084       .  S
C1198      C1199   1.414       .  A
C1199      C1200   1.404       .  A
C1199      C1206   1.518       .  S
C1200      C1201   1.403       .  A
C1200      H1205   1.083       .  S
C1201      C1202   1.434       .  A
C1202      C1203   1.526       .  S
C1203      F1207   1.385       .  S
C1203      F1208   1.384       .  S
C1203      F1209   1.384       .  S
C1206      F1210   1.382       .  S
C1206      F1211   1.383       .  S
C1206      F1212   1.385       .  S
C1213      C1214   1.407       .  A
C1213      C1218   1.409       .  A
C1213      H1220   1.083       .  S
C1214      C1215   1.415       .  A
C1215      C1216   1.414       .  A
C1215      C1222   1.517       .  S
C1216      C1217   1.409       .  A
C1216      H1221   1.084       .  S
C1217      C1218   1.411       .  A
C1218      C1219   1.516       .  S
C1219      F1223   1.384       .  S
C1219      F1224   1.383       .  S
C1219      F1225   1.383       .  S
C1222      F1226   1.382       .  S
C1222      F1227   1.384       .  S
C1222      F1228   1.385       .  S
C1229      C1230   1.408       .  A
C1229      C1234   1.416       .  A
C1229      H1236   1.083       .  S
C1230      C1231   1.411       .  A
C1231      C1232   1.392       .  A
C1231      C1238   1.517       .  S
C1232      C1233   1.402       .  A
C1232      H1237   1.086       .  S
C1233      C1234   1.413       .  A
C1234      C1235   1.512       .  S
C1235      F1239   1.384       .  S
C1235      F1240   1.379       .  S
C1235      F1241   1.383       .  S
C1238      F1242   1.383       .  S
C1238      F1243   1.383       .  S
C1238      F1244   1.384       .  S
C1245      C1246   1.401       .  A
C1245      C1250   1.411       .  A
C1245      H1252   1.083       .  S
C1246      C1247   1.406       .  A
C1247      C1248   1.404   1_455  A
C1247      C1254   1.517       .  S
C1248      C1249   1.411       .  A
C1248      H1253   1.082       .  S
C1249      C1250   1.423   1_655  A
C1250      C1251   1.518       .  S
C1251      F1255   1.385       .  S
C1251      F1256   1.383       .  S
C1251      F1257   1.383       .  S
C1254      F1258   1.383       .  S
C1254      F1259   1.382       .  S
C1254      F1260   1.384   1_455  S
C1261      C1262   1.405       .  A
C1261      C1266   1.395   1_455  A
C1261      H1268   1.086       .  S
C1262      C1263   1.411   1_455  A
C1263      C1264   1.420       .  A
C1263      C1270   1.512       .  S
C1264      C1265   1.412       .  A
C1264      H1269   1.083       .  S
C1265      C1266   1.409       .  A
C1266      C1267   1.515       .  S
C1267      F1271   1.384       .  S
C1267      F1272   1.384       .  S
C1267      F1273   1.383       .  S
C1270      F1274   1.383   1_655  S
C1270      F1275   1.383   1_655  S
C1270      F1276   1.379       .  S
C1277      C1278   1.407       .  A
C1277      C1282   1.414       .  A
C1277      H1284   1.083       .  S
C1278      C1279   1.426       .  A
C1279      C1280   1.445       .  A
C1279      C1286   1.512       .  S
C1280      C1281   1.422       .  A
C1280      H1285   1.082       .  S
C1281      C1282   1.432       .  A
C1282      C1283   1.522       .  S
C1283      F1287   1.385       .  S
C1283      F1288   1.383       .  S
C1283      F1289   1.384       .  S
C1286      F1290   1.381       .  S
C1286      F1291   1.383       .  S
C1286      F1292   1.384       .  S
C1293      C1294   1.409       .  A
C1293      C1298   1.418       .  A
C1293      H1300   1.083       .  S
C1294      C1295   1.430       .  A
C1295      C1296   1.439       .  A
C1295      C1302   1.514       .  S
C1296      C1297   1.416       .  A
C1296      H1301   1.082       .  S
C1297      C1298   1.426       .  A
C1298      C1299   1.517       .  S
C1299      F1303   1.385       .  S
C1299      F1304   1.382       .  S
C1299      F1305   1.383       .  S
C1302      F1306   1.381       .  S
C1302      F1307   1.383       .  S
C1302      F1308   1.384       .  S
