geometry optimzed in LAMMPS
_audit_creation_date              2020-11-30 
_audit_creation_method            'lammps2cif' 
_symmetry_space_group_name_H-M    'P1' 
_symmetry_Int_Tables_number       1 
_symmetry_cell_setting            triclinic 
loop_ 
_symmetry_equiv_pos_as_xyz 
  x,y,z 
_cell_length_a                    46.30139865 
_cell_length_b                    46.31547141132908 
_cell_length_c                    46.087349281477486 
_cell_angle_alpha                 90.00100882110289 
_cell_angle_beta                  90.02661960460905 
_cell_angle_gamma                 90.0435047669529 
loop_ 
_atom_site_label 
_atom_site_type_symbol 
_atom_site_fract_x 
_atom_site_fract_y 
_atom_site_fract_z 
_atom_site_charge 
C1          C  0.84139269  0.53121486  0.83764851     0.02900
C2          C  0.86281248  0.51703033  0.82096262     0.02900
C3          C  0.86351443  0.48640015  0.82071151     0.02900
C4          C  0.84283784  0.47051448  0.83705836     0.02900
C5          C  0.82558474  0.48502731  0.85790337     0.02900
C6          C  0.82451812  0.51555911  0.85778585     0.02900
C7          C  0.75205722  0.24627339  0.79089640     0.03700
C8          C  0.76381503  0.23359131  0.76595362    -0.12400
C9          C  0.78958659  0.24388439  0.75392079     0.01200
C10         C  0.80351868  0.26745606  0.76677190    -0.11000
C11         C  0.79171047  0.28083443  0.79136221     0.03700
C12         C  0.76636548  0.26965642  0.80395005    -0.10400
H13         H  0.75239117  0.21607830  0.75534658     0.09300
H14         H  0.82252064  0.27659842  0.75656457     0.06800
H15         H  0.75645587  0.28064416  0.82213418     0.11500
C16         C  0.56137012  0.19678976  0.83665807     0.02900
C17         C  0.54649537  0.21426118  0.85720363     0.02900
C18         C  0.51579877  0.21467288  0.85706103     0.02900
C19         C  0.50051003  0.19858339  0.83572653     0.02900
C20         C  0.51514823  0.17789270  0.81860594     0.02900
C21         C  0.54575451  0.17673558  0.81918799     0.02900
C22         C  0.22794600  0.47060895  0.83619690     0.02900
C23         C  0.24496608  0.48708331  0.85589194     0.02900
C24         C  0.24372609  0.51767979  0.85492789     0.02900
C25         C  0.22558262  0.53145539  0.83436134     0.02900
C26         C  0.20548076  0.51503074  0.81800500     0.02900
C27         C  0.20671092  0.48447250  0.81884021     0.02900
C28         C  0.27023590  0.24129731  0.75182451     0.03700
C29         C  0.29495650  0.22828035  0.76376353    -0.12400
C30         C  0.30983320  0.24204567  0.78646806     0.01200
C31         C  0.29913202  0.26793983  0.79787332    -0.11000
C32         C  0.27391524  0.28030784  0.78699447     0.03700
C33         C  0.25923629  0.26671183  0.76427728    -0.10400
H34         H  0.30409065  0.20928318  0.75359954     0.09300
H35         H  0.31099782  0.27907297  0.81480598     0.06800
H36         H  0.24041084  0.27701764  0.75493773     0.06700
C37         C  0.50260314  0.81403863  0.85185322     0.02900
C38         C  0.51762362  0.79780411  0.87298882     0.02900
C39         C  0.54810652  0.79740825  0.87257051     0.02900
C40         C  0.56316204  0.81308245  0.85087530     0.02900
C41         C  0.54825066  0.83357835  0.83365014     0.02900
C42         C  0.51763148  0.83454056  0.83470458     0.02900
C43         C  0.28608919  0.71605016  0.77884328     0.03700
C44         C  0.27145669  0.73253490  0.75797392    -0.12400
C45         C  0.28291538  0.75907979  0.74884166     0.01200
C46         C  0.30757062  0.77026146  0.76254427    -0.11000
C47         C  0.32211735  0.75414613  0.78366590     0.03700
C48         C  0.31158649  0.72683960  0.79133957    -0.10400
H49         H  0.25269148  0.72361181  0.74714656     0.09300
H50         H  0.31647148  0.79069675  0.75537912     0.06800
H51         H  0.32317550  0.71404862  0.80722074     0.06700
C52         C  0.56390730  0.80674052  0.22320460     0.02900
C53         C  0.54857623  0.82587925  0.24178906     0.02900
C54         C  0.51797695  0.82492198  0.24254424     0.02900
C55         C  0.50272287  0.80503514  0.22485492     0.02900
C56         C  0.51776367  0.78839955  0.20393176     0.02900
C57         C  0.54839056  0.78887723  0.20336461     0.02900
C58         C  0.22540456  0.81132069  0.56212294     0.02900
C59         C  0.20474877  0.79522524  0.54611930     0.02900
C60         C  0.20466528  0.79628546  0.51535318     0.02900
C61         C  0.22551889  0.81327157  0.50062413     0.02900
C62         C  0.24318415  0.83255884  0.51667471     0.02900
C63         C  0.24322142  0.83131098  0.54731908     0.02900
C64         C  0.31560046  0.75066644  0.27869877     0.03700
C65         C  0.30092281  0.72746241  0.26565542    -0.12400
C66         C  0.27442871  0.71783789  0.27720938     0.01200
C67         C  0.26183600  0.73295969  0.30045746    -0.11000
C68         C  0.27618153  0.75637429  0.31319401     0.03700
C69         C  0.30303600  0.76492489  0.30231303    -0.10400
H70         H  0.31110316  0.71562391  0.24816093     0.09300
H71         H  0.24169462  0.72545056  0.30971057     0.06800
H72         H  0.31450460  0.78256269  0.31264914     0.06700
C73         C  0.22256128  0.52905847  0.22627369     0.02900
C74         C  0.20295982  0.51398915  0.24460229     0.02900
C75         C  0.20413734  0.48337904  0.24606952     0.02900
C76         C  0.22465471  0.46798274  0.22944142     0.02900
C77         C  0.23961292  0.48244862  0.20697168     0.02900
C78         C  0.23931289  0.51300255  0.20593040     0.02900
C79         C  0.56398998  0.18612694  0.21454712     0.02900
C80         C  0.54816850  0.20246971  0.19377414     0.02900
C81         C  0.51750256  0.20263149  0.19487417     0.02900
C82         C  0.50308915  0.18533766  0.21576864     0.02900
C83         C  0.51899958  0.16495487  0.23226434     0.02900
C84         C  0.54955228  0.16580167  0.23239747     0.02900
C85         C  0.28387466  0.24121328  0.31797574     0.03700
C86         C  0.30879548  0.23049614  0.30441944    -0.12400
C87         C  0.32195431  0.24601545  0.28199471     0.01200
C88         C  0.30947372  0.27199204  0.27258427    -0.11000
C89         C  0.28390593  0.28234563  0.28516680     0.03700
C90         C  0.27084289  0.26653161  0.30759152    -0.10400
H91         H  0.31888966  0.21097227  0.31248136     0.09300
H92         H  0.31975358  0.28432771  0.25549645     0.06800
H93         H  0.25204522  0.27512373  0.31857108     0.06700
C94         C  0.22159684  0.18482554  0.56376261     0.02900
C95         C  0.23936511  0.16461781  0.54894019     0.02900
C96         C  0.24033124  0.16472452  0.51825741     0.02900
C97         C  0.22362721  0.18499274  0.50250459     0.02900
C98         C  0.20301422  0.20231044  0.51715436     0.02900
C99         C  0.20179979  0.20206367  0.54786713     0.02900
C100        C  0.83741816  0.46877741  0.23212377     0.02900
C101        C  0.85764194  0.48411801  0.24957214     0.02900
C102        C  0.85789417  0.51465919  0.24885291     0.02900
C103        C  0.83697271  0.52946463  0.23191976     0.02900
C104        C  0.82009961  0.51420001  0.21126650     0.02900
C105        C  0.82097372  0.48362249  0.21070518     0.02900
C106        C  0.83865228  0.19114172  0.56443165     0.02900
C107        C  0.82218897  0.17046144  0.54862875     0.02900
C108        C  0.82294748  0.17073247  0.51793248     0.02900
C109        C  0.84058974  0.19127759  0.50357072     0.02900
C110        C  0.86156079  0.20720624  0.51925156     0.02900
C111        C  0.86012558  0.20764424  0.54991181     0.02900
C112        C  0.77965853  0.28240880  0.28218363     0.03700
C113        C  0.75761171  0.26797909  0.26743749    -0.12400
C114        C  0.74682377  0.24169914  0.27792589     0.01200
C115        C  0.75888590  0.22929776  0.30295350    -0.11000
C116        C  0.78049156  0.24422889  0.31826449     0.03700
C117        C  0.79073263  0.27063252  0.30772529    -0.10400
H118        H  0.74775817  0.27790874  0.24858388     0.09300
H119        H  0.74981578  0.20960946  0.31178047     0.06800
H120        H  0.80724025  0.28226153  0.31966836     0.06700
C121        C  0.83742713  0.80790643  0.50190947     0.02900
C122        C  0.82119850  0.82855369  0.51769757     0.02900
C123        C  0.82221162  0.82879892  0.54837704     0.02900
C124        C  0.84041342  0.80905686  0.56295237     0.02900
C125        C  0.86097961  0.79279381  0.54708939     0.02900
C126        C  0.85933638  0.79200415  0.51639026     0.02900
C127        C  0.78555232  0.75817915  0.31172499     0.03700
C128        C  0.76327299  0.77098749  0.29554733    -0.12400
C129        C  0.75361467  0.75797111  0.26977014     0.01200
C130        C  0.76786943  0.73339445  0.25907785    -0.11000
C131        C  0.79041373  0.72074179  0.27486127     0.03700
C132        C  0.79897335  0.73314044  0.30117530    -0.10400
H133        H  0.75165771  0.78928708  0.30434737     0.09300
H134        H  0.76003666  0.72297512  0.23955625     0.06800
H135        H  0.81561623  0.72268886  0.31396178     0.06700
C136        C  0.78048102  0.75391432  0.74815901     0.03700
C137        C  0.75796193  0.76792865  0.76280072    -0.12400
C138        C  0.74533936  0.75498824  0.78725981     0.01200
C139        C  0.75673080  0.72913885  0.79824597    -0.11000
C140        C  0.77965695  0.71543761  0.78413270     0.03700
C141        C  0.79095521  0.72753119  0.75873365    -0.10400
H142        H  0.74869972  0.78740917  0.75373912     0.09300
H143        H  0.74684049  0.71895717  0.81695234     0.06800
H144        H  0.80792775  0.71630967  0.74710202     0.06700
O145        O  0.00431332  0.69451424  0.67757336    -0.72400
O146        O  0.06492210  0.65039076  0.72176527    -0.73300
O147        O  0.06522868  0.69412380  0.67719714    -0.62000
O148        O  0.00402052  0.65102516  0.72198403    -0.70400
O149        O  0.00449320  0.61679225  0.68828271    -0.69900
O150        O  0.06535153  0.65997403  0.64335792    -0.61200
O151        O  0.06581922  0.61699413  0.68719251    -0.73700
O152        O  0.00374070  0.66004665  0.64409462    -0.72500
Cu153      Cu  0.03467358  0.67372409  0.70079774     1.04600
Cu154      Cu  0.03480122  0.63727849  0.66453985     1.04300
C155        C  0.99464286  0.68427801  0.65373955     0.93800
C156        C  0.07460013  0.62660003  0.71161735     0.93000
C157        C  0.07465556  0.68402777  0.65319666     0.85100
C158        C  0.99498656  0.62678644  0.71232510     0.91400
O159        O  0.72515459  0.03034763  0.68272848    -0.72400
O160        O  0.68346085  0.97081113  0.73089132    -0.73300
O161        O  0.72640318  0.96940691  0.68566281    -0.62000
O162        O  0.68241306  0.03188896  0.72815662    -0.70400
O163        O  0.64779821  0.02987324  0.69491062    -0.69900
O164        O  0.69163798  0.96713256  0.65256997    -0.61200
O165        O  0.64919889  0.96823801  0.69726558    -0.73700
O166        O  0.69017628  0.02857577  0.64981743    -0.72500
Cu167      Cu  0.70556925  0.00068631  0.70803109     1.04600
Cu168      Cu  0.66848989  0.99838451  0.67252464     1.04300
C169        C  0.71442413  0.03852201  0.65851899     0.93800
C170        C  0.65960176  0.96033977  0.72166977     0.93000
C171        C  0.71613593  0.95876201  0.66221332     0.85100
C172        C  0.65804290  0.04052257  0.71837346     0.91400
O173        O  0.69227284  0.61283484  0.06489540    -0.72400
O174        O  0.65129430  0.65611970  0.00097075    -0.73300
O175        O  0.69435665  0.61220548  0.00264560    -0.62000
O176        O  0.64901939  0.65658768  0.06252660    -0.70400
O177        O  0.68338022  0.69003170  0.06349635    -0.69900
O178        O  0.72847412  0.64590558  0.00336500    -0.61200
O179        O  0.68505283  0.69016636  0.00246293    -0.73700
O180        O  0.72697738  0.64592994  0.06466480    -0.72500
Cu181      Cu  0.67059349  0.63321404  0.03271557     1.04600
Cu182      Cu  0.70719101  0.66914597  0.03352422     1.04300
C183        C  0.71631616  0.62244526  0.07455429     0.93800
C184        C  0.66130117  0.68038294  0.99234530     0.93000
C185        C  0.71854769  0.62202164  0.99364521     0.85100
C186        C  0.65887033  0.68055088  0.07205123     0.91400
O187        O  0.33834731  0.96770434  0.68760452    -0.72400
O188        O  0.38165498  0.02963325  0.73033998    -0.73300
O189        O  0.33728147  0.02797804  0.68668207    -0.62000
O190        O  0.38243859  0.96871446  0.73128177    -0.70400
O191        O  0.41639881  0.96888608  0.69725976    -0.69900
O192        O  0.37100589  0.02776721  0.65237296    -0.61200
O193        O  0.41479146  0.03052584  0.69551920    -0.73700
O194        O  0.37272890  0.96673055  0.65398418    -0.72500
Cu195      Cu  0.35881509  0.99848787  0.71022886     1.04600
Cu196      Cu  0.39496979  0.99846191  0.67361627     1.04300
C197        C  0.34845450  0.95797955  0.66376443     0.93800
C198        C  0.40496259  0.03989788  0.71963942     0.93000
C199        C  0.34680246  0.03664198  0.66219149     0.85100
C200        C  0.40653536  0.95960606  0.72142384     0.91400
O201        O  0.00092010  0.34063958  0.64788404    -0.72400
O202        O  0.06699443  0.38031847  0.68873241    -0.73300
O203        O  0.06223493  0.33510151  0.64690734    -0.62000
O204        O  0.00564486  0.38524321  0.68994007    -0.70400
O205        O  0.00328804  0.35225039  0.72482521    -0.69900
O206        O  0.06075376  0.30259638  0.68227172    -0.61200
O207        O  0.06399657  0.34857486  0.72470065    -0.73700
O208        O  0.99994965  0.30724040  0.68244832    -0.72500
Cu209      Cu  0.03405684  0.36143005  0.66712090     1.04600
Cu210      Cu  0.03195162  0.32651196  0.70479162     1.04300
C211        C  0.99040599  0.31744255  0.65854042     0.93800
C212        C  0.07520462  0.37128402  0.71358933     0.93000
C213        C  0.07018786  0.31089897  0.65757561     0.85100
C214        C  0.99567350  0.37658324  0.71429491     0.91400
O215        O  0.36952303  0.61646281  0.00226516    -0.72400
O216        O  0.41220764  0.65678761  0.06651095    -0.73300
O217        O  0.36784287  0.61435183  0.06438544    -0.62000
O218        O  0.41349410  0.65918678  0.00503017    -0.70400
O219        O  0.38000806  0.69346828  0.00522230    -0.69900
O220        O  0.33420385  0.64849347  0.06450023    -0.61200
O221        O  0.37945878  0.69180281  0.06623836    -0.73700
O222        O  0.33546128  0.65014950  0.00287251    -0.72500
Cu223      Cu  0.39182248  0.63545780  0.03455463     1.04600
Cu224      Cu  0.35603300  0.67215086  0.03478996     1.04300
C225        C  0.34591800  0.62682336  0.99238012     0.93800
C226        C  0.40311710  0.68112175  0.07573503     0.93000
C227        C  0.34377203  0.62423703  0.07358830     0.85100
C228        C  0.40419516  0.68366731  0.99624747     0.91400
O229        O  0.64942166  0.34107650  0.06014259    -0.72400
O230        O  0.69294348  0.38782145  0.00112009    -0.73300
O231        O  0.65023477  0.34363231  0.99853623    -0.62000
O232        O  0.69214191  0.38568722  0.06301448    -0.70400
O233        O  0.72741323  0.35331919  0.06192733    -0.69900
O234        O  0.68408506  0.30975009  0.99895869    -0.61200
O235        O  0.72746354  0.35455815  0.00066706    -0.73700
O236        O  0.68413188  0.30804085  0.06028484    -0.72500
Cu237      Cu  0.67002993  0.36570697  0.03078846     1.04600
Cu238      Cu  0.70700940  0.33025970  0.03044796     1.04300
C239        C  0.65951112  0.31695214  0.06900204     0.93800
C240        C  0.71717991  0.37854468  0.99173252     0.93000
C241        C  0.66021208  0.31968870  0.98910083     0.85100
C242        C  0.71664032  0.37666022  0.07209685     0.91400
O243        O  0.68147316  0.02865918  0.33864947    -0.72400
O244        O  0.72460300  0.96927020  0.38488784    -0.73300
O245        O  0.68131346  0.96770193  0.34012823    -0.62000
O246        O  0.72424227  0.03028207  0.38362144    -0.70400
O247        O  0.68933337  0.03160793  0.41658052    -0.69900
O248        O  0.64713026  0.96815361  0.37391045    -0.61200
O249        O  0.68990707  0.96977807  0.41815077    -0.73700
O250        O  0.64684202  0.02985922  0.37192907    -0.72500
Cu251      Cu  0.70412942  0.99892249  0.36068216     1.04600
Cu252      Cu  0.66712353  0.99984392  0.39633745     1.04300
C253        C  0.65736778  0.03849507  0.34779993     0.93800
C254        C  0.71410761  0.96027892  0.40884335     0.93000
C255        C  0.65722847  0.95843926  0.35004928     0.85100
C256        C  0.71353000  0.04079876  0.40690647     0.91400
O257        O  0.00303088  0.66112428  0.41781908    -0.72400
O258        O  0.06580647  0.62101904  0.37309631    -0.73300
O259        O  0.06450329  0.66529086  0.41558708    -0.62000
O260        O  0.00464045  0.61678465  0.37496940    -0.70400
O261        O  0.00161166  0.64977575  0.34016776    -0.69900
O262        O  0.06153753  0.69859557  0.38107853    -0.61200
O263        O  0.06259814  0.65359401  0.33789953    -0.73700
O264        O  0.00048972  0.69454190  0.38337928    -0.72500
Cu265      Cu  0.03460804  0.63994807  0.39656818     1.04600
Cu266      Cu  0.03141659  0.67530990  0.35940566     1.04300
C267        C  0.99215421  0.68442646  0.40778719     0.93800
C268        C  0.07375346  0.63058690  0.34837239     0.93000
C269        C  0.07233292  0.68954064  0.40495121     0.85100
C270        C  0.99399229  0.62549000  0.35092011     0.91400
O271        O  0.06330581  0.34624450  0.33912152    -0.72400
O272        O  0.00260375  0.30424687  0.38483045    -0.73300
O273        O  0.00248775  0.34853081  0.34073590    -0.62000
O274        O  0.06346773  0.30262375  0.38321358    -0.70400
O275        O  0.06637622  0.33678063  0.41692758    -0.69900
O276        O  0.00435752  0.38196115  0.37517791    -0.61200
O277        O  0.00489778  0.33795219  0.41900588    -0.73700
O278        O  0.06604361  0.37975866  0.37352698    -0.72500
Cu279      Cu  0.03286902  0.32423846  0.36078198     1.04600
Cu280      Cu  0.03541586  0.36032111  0.39732910     1.04300
C281        C  0.07419072  0.36952369  0.34915135     0.93800
C282        C  0.99460198  0.31416365  0.40940094     0.93000
C283        C  0.99418494  0.37278594  0.35107170     0.85100
C284        C  0.07432629  0.31240739  0.40676187     0.91400
O285        O  0.37647218  0.97032140  0.41508812    -0.72400
O286        O  0.41955282  0.03086914  0.37001153    -0.73300
O287        O  0.37686167  0.03172474  0.41444881    -0.62000
O288        O  0.41933958  0.96946412  0.37090315    -0.70400
O289        O  0.38488689  0.96879492  0.33736788    -0.69900
O290        O  0.34323016  0.03187985  0.38008744    -0.61200
O291        O  0.38610080  0.02923947  0.33543680    -0.73700
O292        O  0.34187815  0.97119496  0.38167764    -0.72500
Cu293      Cu  0.39929882  0.00062017  0.39380398     1.04600
Cu294      Cu  0.36282119  0.00029164  0.35750579     1.04300
C295        C  0.35202374  0.96168682  0.40559411     0.93800
C296        C  0.40990429  0.03896972  0.34534247     0.93000
C297        C  0.35308763  0.04131590  0.40421591     0.85100
C298        C  0.40898040  0.95956206  0.34720238     0.91400
O299        O  0.38044928  0.30759209  0.06221009    -0.72400
O300        O  0.33743632  0.35209498  0.00066950    -0.73300
O301        O  0.38143216  0.30836771  0.00072794    -0.62000
O302        O  0.33662503  0.35124053  0.06233594    -0.70400
O303        O  0.37038385  0.38530100  0.06266224    -0.69900
O304        O  0.41528961  0.34230637  0.00216654    -0.61200
O305        O  0.37180302  0.38553591  0.00077740    -0.73700
O306        O  0.41375561  0.34207601  0.06360599    -0.72500
Cu307      Cu  0.35775291  0.32862813  0.03144252     1.04600
Cu308      Cu  0.39392858  0.36498197  0.03234086     1.04300
C309        C  0.40404975  0.31775441  0.07236179     0.93800
C310        C  0.34782941  0.37583956  0.99107238     0.93000
C311        C  0.40562774  0.31851283  0.99205237     0.85100
C312        C  0.34653643  0.37510038  0.07212546     0.91400
C313        C  0.81338718  0.80416378  0.42885116     0.30300
C314        C  0.80253414  0.81440977  0.40223670    -0.36000
C315        C  0.79883275  0.79353443  0.38037615     0.16300
C316        C  0.80539677  0.76478721  0.38465704     0.22100
C317        C  0.81538201  0.75454587  0.41136298    -0.34100
C318        C  0.81909045  0.77529513  0.43300955     0.16200
O319        O  0.81947032  0.81971225  0.45204406    -0.26100
C320        C  0.82925965  0.80056525  0.47131332     0.06000
C321        C  0.82887717  0.77247263  0.46056458    -0.31000
O322        O  0.80173849  0.74910560  0.36123078    -0.22800
C323        C  0.79241754  0.76778360  0.34147021    -0.02800
C324        C  0.78992461  0.79585275  0.35217917    -0.17300
H325        H  0.79782503  0.83701876  0.39869843     0.20700
H326        H  0.82046909  0.73202164  0.41482876     0.19100
H327        H  0.83458796  0.75264922  0.47153795     0.19000
H328        H  0.78324011  0.81512974  0.34073986     0.14900
C329        C  0.82077191  0.80386291  0.63674925     0.30300
C330        C  0.81172203  0.81350769  0.66421390    -0.36000
C331        C  0.80386611  0.79179975  0.68402713     0.16300
C332        C  0.80501151  0.76280635  0.67713690     0.22100
C333        C  0.81356648  0.75330271  0.64971210    -0.34100
C334        C  0.82140040  0.77484925  0.63009384     0.16200
O335        O  0.82849046  0.82011301  0.61455487    -0.26100
C336        C  0.83417449  0.80115775  0.59356872     0.06000
C337        C  0.82998527  0.77271235  0.60213486    -0.31000
O338        O  0.79730299  0.74607289  0.69876145    -0.22800
C339        C  0.79079339  0.76440132  0.71989260    -0.02800
C340        C  0.79429319  0.79325550  0.71200868    -0.17300
H341        H  0.81077600  0.83621662  0.66966951     0.20700
H342        H  0.81411237  0.73063481  0.64408086     0.19100
H343        H  0.83189576  0.75330896  0.58919929     0.19000
H344        H  0.79065781  0.81234103  0.72505630     0.14900
C345        C  0.76936867  0.87223034  0.48360584     0.30300
C346        C  0.74166431  0.88188998  0.47606548    -0.36000
C347        C  0.74059337  0.90465581  0.45602616     0.16300
C348        C  0.76502759  0.91652533  0.44366525     0.22100
C349        C  0.79271802  0.90707722  0.45145524    -0.34100
C350        C  0.79379059  0.88491686  0.47209401     0.16200
O351        O  0.77550338  0.85097179  0.50158651    -0.26100
C352        C  0.80420716  0.85049031  0.50194833     0.06000
C353        C  0.81674611  0.87129965  0.48426769    -0.31000
O354        O  0.75897242  0.93729894  0.42509696    -0.22800
C355        C  0.73031407  0.93908012  0.42596729    -0.02800
C356        C  0.71771003  0.91941395  0.44491464    -0.17300
H357        H  0.72236591  0.87245486  0.48526713     0.20700
H358        H  0.81203527  0.91647994  0.44226484     0.19100
H359        H  0.83946184  0.87493650  0.48015984     0.19000
H360        H  0.69502237  0.91637401  0.44962835     0.14900
C361        C  0.90518193  0.74070640  0.48358923     0.30300
C362        C  0.91770663  0.71342460  0.47935561    -0.36000
C363        C  0.93816576  0.71151789  0.45697984     0.16300
C364        C  0.94548541  0.73478926  0.43977824     0.22100
C365        C  0.93317915  0.76213316  0.44425295    -0.34100
C366        C  0.91297096  0.76410355  0.46682213     0.16200
O367        O  0.88548113  0.74728063  0.50310063    -0.26100
C368        C  0.88092768  0.77538397  0.49926527     0.06000
C369        C  0.89734106  0.78698018  0.47679218    -0.31000
O370        O  0.96492849  0.72816508  0.41997872    -0.22800
C371        C  0.97040488  0.70035910  0.42468688    -0.02800
C372        C  0.95444338  0.68883809  0.44753723    -0.17300
H373        H  0.91195553  0.69503483  0.49262596     0.20700
H374        H  0.93901870  0.78057986  0.43110444     0.19100
H375        H  0.89748938  0.80898189  0.46889336     0.19000
H376        H  0.95483357  0.66702286  0.45593491     0.14900
C377        C  0.94901449  0.73583473  0.62191903     0.30300
C378        C  0.93669755  0.76324476  0.61766796    -0.36000
C379        C  0.91672331  0.76546697  0.59484000     0.16300
C380        C  0.90924703  0.74228446  0.57762951     0.22100
C381        C  0.92187098  0.71505506  0.58155322    -0.34100
C382        C  0.94194473  0.71286279  0.60420812     0.16200
O383        O  0.96802856  0.72874449  0.64204056    -0.26100
C384        C  0.97335224  0.70093897  0.63696308     0.06000
C385        C  0.95777437  0.68994640  0.61363554    -0.31000
O386        O  0.88915590  0.74877428  0.55850255    -0.22800
C387        C  0.88390770  0.77663215  0.56299566    -0.02800
C388        C  0.90048161  0.78817455  0.58544804    -0.17300
H389        H  0.94212521  0.78146042  0.63132047     0.20700
H390        H  0.91621730  0.69679296  0.56805315     0.19100
H391        H  0.95814201  0.66826674  0.60488857     0.19000
H392        H  0.90002103  0.80992437  0.59400955     0.14900
C393        C  0.74299324  0.90511077  0.61540277     0.30300
C394        C  0.74165926  0.88348771  0.59401924    -0.36000
C395        C  0.76824581  0.87198382  0.58499399     0.16300
C396        C  0.79433123  0.88140265  0.59592199     0.22100
C397        C  0.79564873  0.90257403  0.61769685    -0.34100
C398        C  0.76905771  0.91377120  0.62703743     0.16200
O399        O  0.72089134  0.91946168  0.62637966    -0.26100
C400        C  0.73290094  0.93720370  0.64569026     0.06000
C401        C  0.76281693  0.93445243  0.64714835    -0.31000
O402        O  0.81654477  0.86805240  0.58408313    -0.22800
C403        C  0.80459939  0.84960455  0.56544690    -0.02800
C404        C  0.77453903  0.85086383  0.56536690    -0.17300
H405        H  0.72135727  0.87626249  0.58495744     0.20700
H406        H  0.81597279  0.90983963  0.62666742     0.19100
H407        H  0.77781461  0.94663999  0.66035237     0.19000
H408        H  0.75951799  0.83770813  0.55318294     0.14900
C409        C  0.80656685  0.23729338  0.38892162     0.30300
C410        C  0.81606830  0.24728905  0.41592808    -0.36000
C411        C  0.82314596  0.22592216  0.43607803     0.16300
C412        C  0.82148558  0.19682503  0.42994793     0.22100
C413        C  0.81181768  0.18681977  0.40296987    -0.34100
C414        C  0.80419556  0.20818258  0.38292922     0.16200
O415        O  0.79856288  0.25349809  0.36702585    -0.26100
C416        C  0.79064371  0.23460167  0.34681429     0.06000
C417        C  0.79347558  0.20601589  0.35552001    -0.31000
O418        O  0.82826195  0.18067812  0.45234928    -0.22800
C419        C  0.83410312  0.19958105  0.47319298    -0.02800
C420        C  0.83116798  0.22813355  0.46425660    -0.17300
H421        H  0.81735135  0.27006077  0.42100872     0.20700
H422        H  0.80981057  0.16402880  0.39819949     0.19100
H423        H  0.78880713  0.18660248  0.34332001     0.19000
H424        H  0.83365307  0.24760398  0.47699760     0.14900
C425        C  0.76465641  0.08642064  0.43974322     0.30300
C426        C  0.79255226  0.09571556  0.44727736    -0.36000
C427        C  0.79421910  0.11700170  0.46889486     0.16300
C428        C  0.77011959  0.12916971  0.48149846     0.22100
C429        C  0.74217108  0.11979911  0.47403900    -0.34100
C430        C  0.74052083  0.09777975  0.45306395     0.16200
O431        O  0.75827227  0.06561360  0.42123002    -0.26100
C432        C  0.72967927  0.06318577  0.42297727     0.06000
C433        C  0.71744150  0.08266907  0.44247399    -0.31000
O434        O  0.77676896  0.14931880  0.50070202    -0.22800
C435        C  0.80554369  0.14973415  0.50072420    -0.02800
C436        C  0.81752073  0.12972468  0.48165187    -0.17300
H437        H  0.81164074  0.08649272  0.43747379     0.20700
H438        H  0.72312387  0.12863291  0.48427687     0.19100
H439        H  0.69493495  0.08498241  0.44832412     0.19000
H440        H  0.84013585  0.12593859  0.47715295     0.14900
C441        C  0.94803748  0.26357494  0.44167962     0.30300
C442        C  0.93365789  0.23703316  0.44486305    -0.36000
C443        C  0.91568624  0.23443291  0.46928129     0.16300
C444        C  0.91194744  0.25641595  0.48909301     0.22100
C445        C  0.92651166  0.28284443  0.48604677    -0.34100
C446        C  0.94456003  0.28543846  0.46171520     0.16200
O447        O  0.96576567  0.27081639  0.42043891    -0.26100
C448        C  0.97379525  0.29766137  0.42701233     0.06000
C449        C  0.96132301  0.30781913  0.45250026    -0.31000
O450        O  0.89320861  0.24974729  0.50962269    -0.22800
C451        C  0.88482125  0.22301407  0.50309617    -0.02800
C452        C  0.89841274  0.21237118  0.47825692    -0.17300
H453        H  0.93613179  0.21972162  0.42930116     0.20700
H454        H  0.92374424  0.30026925  0.50142358     0.19100
H455        H  0.96423714  0.32864432  0.46273531     0.19000
H456        H  0.89527725  0.19166613  0.46783050     0.14900
C457        C  0.77146610  0.12159818  0.57854668     0.30300
C458        C  0.74446982  0.10813381  0.58229694    -0.36000
C459        C  0.74229688  0.08891487  0.60583804     0.16300
C460        C  0.76510101  0.08336356  0.62430091     0.22100
C461        C  0.79211083  0.09647491  0.62027797    -0.34100
C462        C  0.79424887  0.11565588  0.59686166     0.16200
O463        O  0.77810863  0.14120390  0.55880825    -0.26100
C464        C  0.80556555  0.14779632  0.56450614     0.06000
C465        C  0.81667600  0.13237488  0.58790591    -0.31000
O466        O  0.75822669  0.06529934  0.64531182    -0.22800
C467        C  0.73064621  0.05900477  0.64027902    -0.02800
C468        C  0.71957987  0.07298641  0.61590896    -0.17300
H469        H  0.72637167  0.11266120  0.56819028     0.20700
H470        H  0.81007566  0.09235510  0.63467824     0.19100
H471        H  0.83801239  0.13388129  0.59736551     0.19000
H472        H  0.69796634  0.07172010  0.60707987     0.14900
C473        C  0.94508249  0.26644933  0.62602297     0.30300
C474        C  0.93609938  0.23853838  0.61852195    -0.36000
C475        C  0.91431972  0.23677328  0.59752761     0.16300
C476        C  0.90143255  0.26079526  0.58545653     0.22100
C477        C  0.91060296  0.28880340  0.59277445    -0.34100
C478        C  0.93311969  0.29056124  0.61315604     0.16200
O479        O  0.96604038  0.27289744  0.64422421    -0.26100
C480        C  0.96796152  0.30148325  0.64272633     0.06000
C481        C  0.94809113  0.31372540  0.62365594    -0.31000
O482        O  0.88082226  0.25396284  0.56688468    -0.22800
C483        C  0.88092842  0.22521137  0.56679915    -0.02800
C484        C  0.90162589  0.21337791  0.58510519    -0.17300
H485        H  0.94583021  0.21951198  0.62797801     0.20700
H486        H  0.90119659  0.30780239  0.58293778     0.19100
H487        H  0.94537520  0.33626640  0.61811513     0.19000
H488        H  0.90590952  0.19079537  0.58931175     0.14900
C489        C  0.80522849  0.35292350  0.27568130     0.30300
C490        C  0.81527592  0.37943254  0.28592734    -0.36000
C491        C  0.82055898  0.40030967  0.26478929     0.16300
C492        C  0.81658461  0.39554730  0.23554723     0.22100
C493        C  0.80609079  0.36904687  0.22523389    -0.34100
C494        C  0.80050223  0.34810613  0.24648729     0.16200
O495        O  0.79879681  0.33048639  0.29179173    -0.26100
C496        C  0.78951864  0.31102445  0.27281221     0.06000
C497        C  0.78998570  0.32076965  0.24423594    -0.31000
O498        O  0.82267950  0.41850843  0.21984304    -0.22800
C499        C  0.83068264  0.43819864  0.23930107    -0.02800
C500        C  0.82914209  0.42800241  0.26765134    -0.17300
H501        H  0.81853172  0.38356586  0.30882271     0.20700
H502        H  0.80229662  0.36515751  0.20239202     0.19100
H503        H  0.78376202  0.30933697  0.22473073     0.19000
H504        H  0.83254751  0.43961501  0.28771599     0.14900
C505        C  0.82280407  0.60435220  0.23280381     0.30300
C506        C  0.81679978  0.63179435  0.22136966    -0.36000
C507        C  0.81250207  0.65387105  0.24179838     0.16300
C508        C  0.81439720  0.64926803  0.27133099     0.22100
C509        C  0.82040670  0.62192351  0.28271458    -0.34100
C510        C  0.82426481  0.59989031  0.26235403     0.16200
O511        O  0.82692317  0.58040450  0.21786424    -0.26100
C512        C  0.83106600  0.56040221  0.23817842     0.06000
C513        C  0.82923763  0.57135873  0.26624307    -0.31000
O514        O  0.80818463  0.67244965  0.28655745    -0.22800
C515        C  0.80192038  0.69222825  0.26662833    -0.02800
C516        C  0.80438367  0.68193549  0.23833000    -0.17300
H517        H  0.81494380  0.63550706  0.19827013     0.20700
H518        H  0.82127842  0.61796308  0.30582167     0.19100
H519        H  0.83129362  0.55987689  0.28658325     0.19000
H520        H  0.79985370  0.69316345  0.21825100     0.14900
C521        C  0.77072787  0.45101517  0.16278828     0.30300
C522        C  0.74332440  0.44444066  0.15136254    -0.36000
C523        C  0.74266760  0.42445066  0.12839011     0.16300
C524        C  0.76724242  0.41161052  0.11748776     0.22100
C525        C  0.79473661  0.41867976  0.12850223    -0.34100
C526        C  0.79539312  0.43880863  0.15138648     0.16200
O527        O  0.77620813  0.46832976  0.18494325    -0.26100
C528        C  0.80483042  0.46739088  0.18778254     0.06000
C529        C  0.81790691  0.44961132  0.16719906    -0.31000
O530        O  0.76147463  0.39276585  0.09665429    -0.22800
C531        C  0.73280019  0.39374227  0.09395737    -0.02800
C532        C  0.72003797  0.41326405  0.11303960    -0.17300
H533        H  0.72383729  0.45395239  0.16003752     0.20700
H534        H  0.81420423  0.40890124  0.12009069     0.19100
H535        H  0.84064847  0.44483993  0.16480023     0.19000
H536        H  0.69733592  0.41822444  0.11544318     0.14900
C537        C  0.94121334  0.42137205  0.32581389     0.30300
C538        C  0.91908057  0.44206567  0.32802438    -0.36000
C539        C  0.90567373  0.45017872  0.30186992     0.16300
C540        C  0.91390166  0.43926547  0.27530008     0.22100
C541        C  0.93589759  0.41848302  0.27311042    -0.34100
C542        C  0.94881900  0.40981638  0.29930906     0.16200
O543        O  0.95615673  0.41011879  0.34752128    -0.26100
C544        C  0.97317420  0.39064891  0.33483324     0.06000
C545        C  0.96947901  0.38953310  0.30484966    -0.31000
O546        O  0.89841746  0.44977911  0.25364161    -0.22800
C547        C  0.88000591  0.46784474  0.26638525    -0.02800
C548        C  0.88311671  0.46833814  0.29652391    -0.17300
H549        H  0.91245465  0.45085973  0.34871788     0.20700
H550        H  0.94212864  0.40930895  0.25246345     0.19100
H551        H  0.98058588  0.37591357  0.28939329     0.19000
H552        H  0.87021034  0.47989592  0.31226207     0.14900
C553        C  0.74160747  0.57791455  0.13102411     0.30300
C554        C  0.73986686  0.55874332  0.15468486    -0.36000
C555        C  0.76636403  0.54928412  0.16626932     0.16300
C556        C  0.79265606  0.55781774  0.15508279     0.22100
C557        C  0.79437573  0.57714895  0.13172063    -0.34100
C558        C  0.76799635  0.58694533  0.12048823     0.16200
O559        O  0.71970799  0.58917628  0.11644476    -0.26100
C560        C  0.73235561  0.60600058  0.09669889     0.06000
C561        C  0.76232996  0.60556209  0.09835825    -0.31000
O562        O  0.81473460  0.54641552  0.16906533    -0.22800
C563        C  0.80256569  0.53037964  0.18965027    -0.02800
C564        C  0.77247701  0.53148146  0.18910845    -0.17300
H565        H  0.71936433  0.55174695  0.16344826     0.20700
H566        H  0.81488213  0.58418701  0.12300289     0.19100
H567        H  0.77768624  0.61672936  0.08467991     0.19000
H568        H  0.75741356  0.52095159  0.20359923     0.14900
C569        C  0.90757449  0.54676319  0.29764840     0.30300
C570        C  0.92178858  0.55096771  0.32425181    -0.36000
C571        C  0.94182566  0.57372080  0.32514582     0.16300
C572        C  0.94727870  0.59127846  0.30158153     0.22100
C573        C  0.93338042  0.58673715  0.27485533    -0.34100
C574        C  0.91356269  0.56381117  0.27390089     0.16200
O575        O  0.88749277  0.52731669  0.29219240    -0.26100
C576        C  0.88079441  0.53144853  0.26441716     0.06000
C577        C  0.89642129  0.55399827  0.25196419    -0.31000
O578        O  0.96613650  0.61184857  0.30751098    -0.22800
C579        C  0.97305666  0.60728814  0.33518340    -0.02800
C580        C  0.95872320  0.58371824  0.34721765    -0.17300
H581        H  0.91734075  0.53761757  0.34298285     0.20700
H582        H  0.93753542  0.60028208  0.25619898     0.19100
H583        H  0.89493159  0.56223406  0.23004425     0.19000
H584        H  0.96024230  0.57545774  0.36912447     0.14900
C585        C  0.12112806  0.28134412  0.60975955     0.30300
C586        C  0.14144930  0.28194268  0.58719617    -0.36000
C587        C  0.15474742  0.25559288  0.58049775     0.16300
C588        C  0.14849542  0.23029573  0.59495331     0.22100
C589        C  0.12830427  0.22971769  0.61778377    -0.34100
C590        C  0.11503311  0.25618437  0.62459889     0.16200
O591        O  0.10618495  0.30358077  0.61937352    -0.26100
C592        C  0.09046520  0.29278865  0.64094507     0.06000
C593        C  0.09505681  0.26333326  0.64525044    -0.31000
O594        O  0.16369843  0.20823576  0.58513211    -0.22800
C595        C  0.17975773  0.21946921  0.56390738    -0.02800
C596        C  0.17530719  0.24901953  0.56043587    -0.17300
H597        H  0.14655700  0.30164977  0.57565865     0.20700
H598        H  0.12338998  0.21004405  0.62948087     0.19100
H599        H  0.08495475  0.24926521  0.66103603     0.19000
H600        H  0.18628832  0.26379723  0.54603825     0.14900
C601        C  0.28922053  0.12662415  0.59196595     0.30300
C602        C  0.31307955  0.12323204  0.61037926    -0.36000
C603        C  0.31690469  0.09565716  0.62226507     0.16300
C604        C  0.29848388  0.07289497  0.61657178     0.22100
C605        C  0.27479511  0.07615408  0.59777245    -0.34100
C606        C  0.27102738  0.10379129  0.58578535     0.16200
O607        O  0.28088319  0.15092500  0.57962417    -0.26100
C608        C  0.25708809  0.14354248  0.56523802     0.06000
C609        C  0.25004224  0.11446272  0.56802924    -0.31000
O610        O  0.30608892  0.04911117  0.63040595    -0.22800
C611        C  0.32973796  0.05687657  0.64490356    -0.02800
C612        C  0.33753798  0.08545493  0.64060198    -0.17300
H613        H  0.32744993  0.14095958  0.61539523     0.20700
H614        H  0.26018174  0.05852924  0.59308927     0.19100
H615        H  0.23162950  0.10318777  0.55903242     0.19000
H616        H  0.35581396  0.09693504  0.64962551     0.14900
C617        C  0.32391590  0.09071038  0.45402388     0.30300
C618        C  0.32285315  0.10766725  0.47928652    -0.36000
C619        C  0.29617730  0.12072415  0.48539919     0.16300
C620        C  0.27226361  0.11732355  0.46787413     0.22100
C621        C  0.27346836  0.10091630  0.44236534    -0.34100
C622        C  0.30007360  0.08789927  0.43624845     0.16200
O623        O  0.34608997  0.07526396  0.44487371    -0.26100
C624        C  0.33632570  0.06266952  0.42079300     0.06000
C625        C  0.30791270  0.06991652  0.41432389    -0.31000
O626        O  0.24952825  0.13129570  0.47767884    -0.22800
C627        C  0.25883674  0.14397343  0.50187379    -0.02800
C628        C  0.28787565  0.13830626  0.50757381    -0.17300
H629        H  0.34138749  0.11015920  0.49341520     0.20700
H630        H  0.25484501  0.09822917  0.42840994     0.19100
H631        H  0.29460497  0.06208823  0.39667799     0.19000
H632        H  0.30127490  0.14673859  0.52485486     0.14900
C633        C  0.14660591  0.23305359  0.47662097     0.30300
C634        C  0.11968403  0.23381148  0.46267104    -0.36000
C635        C  0.11334675  0.25916650  0.44730081     0.16300
C636        C  0.13197687  0.28241612  0.44604002     0.22100
C637        C  0.15923892  0.28138137  0.45944249    -0.34100
C638        C  0.16571443  0.25585830  0.47457331     0.16200
O639        O  0.15681809  0.21156476  0.49236066    -0.26100
C640        C  0.18287362  0.22067334  0.50039346     0.06000
C641        C  0.18972204  0.24794191  0.48972912    -0.31000
O642        O  0.12094140  0.30445111  0.43155872    -0.22800
C643        C  0.09520775  0.29481825  0.42296298    -0.02800
C644        C  0.08939977  0.26681653  0.43201069    -0.17300
H645        H  0.10466509  0.21596551  0.46385643     0.20700
H646        H  0.17421756  0.29926803  0.45837454     0.19100
H647        H  0.20952224  0.25999716  0.49271007     0.19000
H648        H  0.06994612  0.25432121  0.42855939     0.14900
C649        C  0.25794512  0.19926629  0.43604662     0.30300
C650        C  0.28170686  0.20404400  0.41792329    -0.36000
C651        C  0.27520319  0.21277966  0.38961384     0.16300
C652        C  0.24731242  0.21715007  0.37995635     0.22100
C653        C  0.22352495  0.21164786  0.39794600    -0.34100
C654        C  0.23003176  0.20226577  0.42610184     0.16200
O655        O  0.25905539  0.19250465  0.46369168    -0.26100
C656        C  0.23148200  0.19073691  0.47168492     0.06000
C657        C  0.21245738  0.19587331  0.44882001    -0.31000
O658        O  0.24639530  0.22721897  0.35321587    -0.22800
C659        C  0.27403995  0.22854214  0.34548486    -0.02800
C660        C  0.29288880  0.21980098  0.36726992    -0.17300
H661        H  0.30370073  0.20160405  0.42550633     0.20700
H662        H  0.20153932  0.21493458  0.39068724     0.19100
H663        H  0.18913015  0.19538398  0.44873674     0.19000
H664        H  0.31626769  0.21995996  0.36709745     0.14900
C665        C  0.38353292  0.20921184  0.25711074     0.30300
C666        C  0.40086405  0.18530459  0.25018570    -0.36000
C667        C  0.42832632  0.19167998  0.23897139     0.16300
C668        C  0.43816479  0.21952947  0.23539922     0.22100
C669        C  0.42070546  0.24335118  0.24171926    -0.34100
C670        C  0.39317712  0.23702866  0.25247802     0.16200
O671        O  0.35726207  0.20849726  0.26819241    -0.26100
C672        C  0.34987295  0.23623433  0.27010732     0.06000
C673        C  0.37147108  0.25488845  0.26069564    -0.31000
O674        O  0.46506321  0.22058074  0.22639354    -0.22800
C675        C  0.47278662  0.19302937  0.22378308    -0.02800
C676        C  0.45034667  0.17407202  0.23068660    -0.17300
H677        H  0.39359200  0.16334888  0.25356000     0.20700
H678        H  0.42818620  0.26529522  0.23874400     0.19100
H679        H  0.37144484  0.27825280  0.26050951     0.19000
H680        H  0.44987820  0.15081938  0.22984702     0.14900
C681        C  0.63799052  0.19139853  0.23289091     0.30300
C682        C  0.66519448  0.18170548  0.24238480    -0.36000
C683        C  0.68495578  0.20339065  0.25024948     0.16300
C684        C  0.67839220  0.23239349  0.24814949     0.22100
C685        C  0.65138652  0.24196664  0.23879488    -0.34100
C686        C  0.63161665  0.22043264  0.23159507     0.16200
O687        O  0.61553435  0.17517342  0.22621328    -0.26100
C688        C  0.59455053  0.19410771  0.22083429     0.06000
C689        C  0.60347033  0.22258834  0.22405955    -0.31000
O690        O  0.69943338  0.24909198  0.25704603    -0.22800
C691        C  0.71984313  0.23078754  0.26533957    -0.02800
C692        C  0.71211549  0.20191720  0.26180710    -0.17300
H693        H  0.67023143  0.15897561  0.24435125     0.20700
H694        H  0.64590564  0.26465609  0.23801474     0.19100
H695        H  0.59071574  0.24206263  0.22213445     0.19000
H696        H  0.72453490  0.18284742  0.26712373     0.14900
C697        C  0.48329269  0.25656116  0.15264420     0.30300
C698        C  0.47891392  0.28433635  0.14124616    -0.36000
C699        C  0.45476708  0.28767436  0.12312787     0.16300
C700        C  0.43602113  0.26532702  0.11691635     0.22100
C701        C  0.44055209  0.23750851  0.12815287    -0.34100
C702        C  0.46495975  0.23408202  0.14589500     0.16200
O703        O  0.50429607  0.24865867  0.17028235    -0.26100
C704        C  0.49993235  0.22053460  0.17439062     0.06000
C705        C  0.47560760  0.21037474  0.15971912    -0.31000
O706        O  0.41516861  0.27313601  0.09902643    -0.22800
C707        C  0.42072818  0.30081024  0.09355471    -0.02800
C708        C  0.44510713  0.31100928  0.10797654    -0.17300
H709        H  0.49344111  0.30202932  0.14598327     0.20700
H710        H  0.42625381  0.21970948  0.12312804     0.19100
H711        H  0.46673821  0.18874986  0.15982402     0.19000
H712        H  0.45468711  0.33230045  0.10686283     0.14900
C713        C  0.44928800  0.07623506  0.29270682     0.30300
C714        C  0.46287940  0.08051814  0.26581383    -0.36000
C715        C  0.47890114  0.10610308  0.26308403     0.16300
C716        C  0.48060568  0.12640722  0.28497277     0.22100
C717        C  0.46732537  0.12195404  0.31188356    -0.34100
C718        C  0.45206162  0.09605270  0.31491787     0.16200
O719        O  0.43352672  0.05375268  0.30026411    -0.26100
C720        C  0.42668198  0.05912140  0.32777339     0.06000
C721        C  0.43771537  0.08498568  0.33812709    -0.31000
O722        O  0.49536556  0.14946993  0.27732415    -0.22800
C723        C  0.50370640  0.14365912  0.25039609    -0.02800
C724        C  0.49435782  0.11689653  0.24038150    -0.17300
H725        H  0.46119560  0.06498582  0.24836510     0.20700
H726        H  0.46886197  0.13756842  0.32926310     0.19100
H727        H  0.43533108  0.09427636  0.35953540     0.19000
H728        H  0.49739504  0.10752120  0.21909605     0.14900
C729        C  0.59722552  0.11591135  0.26499065     0.30300
C730        C  0.61992266  0.09587781  0.26562829    -0.36000
C731        C  0.62643016  0.08398171  0.29282987     0.16300
C732        C  0.61143906  0.09099620  0.31771556     0.22100
C733        C  0.58916170  0.11164001  0.31720039    -0.34100
C734        C  0.58286348  0.12380487  0.28995688     0.16200
O735        O  0.58721111  0.12911549  0.24172909    -0.26100
C736        C  0.56641092  0.14620230  0.25180441     0.06000
C737        C  0.56288352  0.14389441  0.28179834    -0.31000
O738        O  0.62027421  0.07607476  0.34050400    -0.22800
C739        C  0.64147104  0.05963755  0.33007404    -0.02800
C740        C  0.64635259  0.06382157  0.30059715    -0.17300
H741        H  0.63149660  0.08976363  0.24620349     0.20700
H742        H  0.57736560  0.11752733  0.33655707     0.19100
H743        H  0.54803303  0.15550640  0.29561916     0.19000
H744        H  0.66178127  0.05294712  0.28676518     0.14900
C745        C  0.62643103  0.26305384  0.11120013     0.30300
C746        C  0.62225236  0.23533805  0.12294778    -0.36000
C747        C  0.59789983  0.23193495  0.14082144     0.16300
C748        C  0.57925201  0.25428699  0.14699056     0.22100
C749        C  0.58310217  0.28177138  0.13487046    -0.34100
C750        C  0.60724025  0.28512710  0.11685502     0.16200
O751        O  0.64783041  0.27131706  0.09412603    -0.26100
C752        C  0.64208810  0.29900063  0.08873115     0.06000
C753        C  0.61704298  0.30865151  0.10221750    -0.31000
O754        O  0.55903445  0.24689487  0.16566241    -0.22800
C755        C  0.56421926  0.21921604  0.17122751    -0.02800
C756        C  0.58819481  0.20874841  0.15620265    -0.17300
H757        H  0.63706792  0.21779352  0.11872447     0.20700
H758        H  0.56853289  0.29941673  0.13951049     0.19100
H759        H  0.60742010  0.32990912  0.10125486     0.19000
H760        H  0.59774665  0.18747047  0.15745931     0.14900
C761        C  0.23194610  0.39543330  0.25323847     0.30300
C762        C  0.22315239  0.36840064  0.26403377    -0.36000
C763        C  0.24522820  0.34796911  0.26828620     0.16300
C764        C  0.27381524  0.35377692  0.26216486     0.22100
C765        C  0.28261229  0.38082883  0.25190473    -0.34100
C766        C  0.26064775  0.40115886  0.24781955     0.16200
O767        O  0.21512229  0.41771441  0.24725557    -0.26100
C768        C  0.23335435  0.43796113  0.23780880     0.06000
C769        C  0.26201125  0.42878868  0.23826362    -0.31000
O770        O  0.29082304  0.33156107  0.26702861    -0.22800
C771        C  0.27307749  0.31113134  0.27668936    -0.02800
C772        C  0.24437772  0.32015353  0.27807428    -0.17300
H773        H  0.20075683  0.36361370  0.26864120     0.20700
H774        H  0.30498641  0.38562499  0.24725663     0.19100
H775        H  0.28120381  0.44085867  0.23262419     0.19000
H776        H  0.22564956  0.30792491  0.28487164     0.14900
C777        C  0.13103106  0.41142960  0.32263084     0.30300
C778        C  0.15561428  0.42902764  0.32430254    -0.36000
C779        C  0.16398928  0.44242352  0.29839752     0.16300
C780        C  0.14914977  0.43887062  0.27265950     0.22100
C781        C  0.12503881  0.42063908  0.27079505    -0.34100
C782        C  0.11679842  0.40704358  0.29665833     0.16200
O783        O  0.11825856  0.39838737  0.34454944    -0.26100
C784        C  0.09594134  0.38505000  0.33230346     0.06000
C785        C  0.09408369  0.38935615  0.30253840    -0.31000
O786        O  0.16065404  0.45367698  0.25118337    -0.22800
C787        C  0.18303678  0.46696368  0.26339725    -0.02800
C788        C  0.18654125  0.46030363  0.29256983    -0.17300
H789        H  0.16710043  0.43242094  0.34446423     0.20700
H790        H  0.11336357  0.41752753  0.25070409     0.19100
H791        H  0.07750895  0.38186683  0.28778176     0.19000
H792        H  0.20366282  0.46700208  0.30707199     0.14900
C793        C  0.28964163  0.45089157  0.15862783     0.30300
C794        C  0.31643951  0.44746844  0.14488597    -0.36000
C795        C  0.31873179  0.42401948  0.12578695     0.16300
C796        C  0.29627366  0.40511173  0.12058664     0.22100
C797        C  0.26939298  0.40856997  0.13434203    -0.34100
C798        C  0.26707222  0.43214223  0.15341116     0.16200
O799        O  0.28298551  0.47114707  0.17755782    -0.26100
C800        C  0.25572022  0.46547974  0.18466126     0.06000
C801        C  0.24466406  0.44141540  0.17020399    -0.31000
O802        O  0.30312818  0.38498204  0.10147738    -0.22800
C803        C  0.33027444  0.39124284  0.09426205    -0.02800
C804        C  0.34109856  0.41525292  0.10880165    -0.17300
H805        H  0.33422247  0.46211183  0.14876485     0.20700
H806        H  0.25156008  0.39400441  0.13038578     0.19100
H807        H  0.22338609  0.43194991  0.17219416     0.19000
H808        H  0.36221624  0.42505844  0.10678198     0.14900
C809        C  0.31710912  0.58001488  0.12930846     0.30300
C810        C  0.31836097  0.56348732  0.15481816    -0.36000
C811        C  0.29264808  0.54970776  0.16300938     0.16300
C812        C  0.26760662  0.55139977  0.14681956     0.22100
C813        C  0.26623293  0.56826718  0.12154000    -0.34100
C814        C  0.29176063  0.58271371  0.11378115     0.16200
O815        O  0.33868652  0.59447799  0.11750114    -0.26100
C816        C  0.32685169  0.60714977  0.09446987     0.06000
C817        C  0.29764236  0.60083146  0.09120213    -0.31000
O818        O  0.24579695  0.53775716  0.15914148    -0.22800
C819        C  0.25694963  0.52774257  0.18376938    -0.02800
C820        C  0.28603282  0.53429972  0.18727742    -0.17300
H821        H  0.33785138  0.56190800  0.16763700     0.20700
H822        H  0.24650719  0.57048654  0.10918900     0.19100
H823        H  0.28320977  0.60770633  0.07408244     0.19000
H824        H  0.29985639  0.52929197  0.20551976     0.14900
C825        C  0.15142229  0.56355739  0.27127242     0.30300
C826        C  0.13245872  0.58720544  0.26980115    -0.36000
C827        C  0.12010206  0.59606047  0.29617127     0.16300
C828        C  0.12594087  0.58244879  0.32216025     0.22100
C829        C  0.14531410  0.55920333  0.32370409    -0.34100
C830        C  0.15765703  0.55040143  0.29735585     0.16200
O831        O  0.16557653  0.55186220  0.24936975    -0.26100
C832        C  0.18105400  0.53076715  0.26147110     0.06000
C833        C  0.17722663  0.52926659  0.29143503    -0.31000
O834        O  0.11094108  0.59322789  0.34391577    -0.22800
C835        C  0.09548501  0.61426219  0.33185484    -0.02800
C836        C  0.10043256  0.61717060  0.30219833    -0.17300
H837        H  0.12753589  0.59784559  0.24946336     0.20700
H838        H  0.15015994  0.54849164  0.34400656     0.19100
H839        H  0.18840126  0.51588599  0.30697684     0.19000
H840        H  0.09014141  0.63186739  0.28712510     0.14900
C841        C  0.23211328  0.59909348  0.25564498     0.30300
C842        C  0.23302964  0.61962165  0.27796011    -0.36000
C843        C  0.24340855  0.64699839  0.27020142     0.16300
C844        C  0.25266457  0.65366644  0.24254514     0.22100
C845        C  0.25063850  0.63338418  0.21998329    -0.34100
C846        C  0.23984286  0.60610491  0.22773150     0.16200
O847        O  0.22499684  0.57170704  0.25841585    -0.26100
C848        C  0.22749916  0.56076272  0.23175317     0.06000
C849        C  0.23610227  0.58176056  0.21172005    -0.31000
O850        O  0.26427805  0.67969343  0.24089631    -0.22800
C851        C  0.26180175  0.69003298  0.26775286    -0.02800
C852        C  0.24878713  0.67061398  0.28677776    -0.17300
H853        H  0.22692354  0.61437109  0.29999220     0.20700
H854        H  0.25782893  0.63819239  0.19818646     0.19100
H855        H  0.23892202  0.58034345  0.18867129     0.19000
H856        H  0.24546169  0.67286136  0.30990895     0.14900
C857        C  0.22829239  0.79632373  0.42562362     0.30300
C858        C  0.21798464  0.78741362  0.39830517    -0.36000
C859        C  0.23922203  0.78185572  0.37717946     0.16300
C860        C  0.26834775  0.78530383  0.38262973     0.22100
C861        C  0.27851626  0.79379138  0.40981492    -0.34100
C862        C  0.25748103  0.79887188  0.43082866     0.16200
O863        O  0.21272581  0.80172008  0.44903686    -0.26100
C864        C  0.23232008  0.80772758  0.46941725     0.06000
C865        C  0.26047213  0.80561017  0.45914649    -0.31000
O866        O  0.28461201  0.77798665  0.36053456    -0.22800
C867        C  0.26592471  0.76928360  0.34052172    -0.02800
C868        C  0.23723433  0.77125057  0.34958093    -0.17300
H869        H  0.19520021  0.78435210  0.39407128     0.20700
H870        H  0.30137699  0.79560438  0.41448192     0.19100
H871        H  0.28051143  0.80749471  0.47109112     0.19000
H872        H  0.21792682  0.76502010  0.33791818     0.14900
C873        C  0.15044092  0.76887583  0.46921989     0.30300
C874        C  0.12893420  0.77006646  0.44770583    -0.36000
C875        C  0.11734683  0.74341916  0.43887643     0.16300
C876        C  0.12595215  0.71751013  0.45085732     0.22100
C877        C  0.14757667  0.71632066  0.47218475    -0.34100
C878        C  0.15946481  0.74287403  0.48063764     0.16200
O879        O  0.16470029  0.79103322  0.48015616    -0.26100
C880        C  0.18329521  0.77903431  0.49861832     0.06000
C881        C  0.18101677  0.74909601  0.49976492    -0.31000
O882        O  0.11160916  0.69529699  0.44021599    -0.22800
C883        C  0.09380401  0.70697221  0.42082314    -0.02800
C884        C  0.09654689  0.73687454  0.41887794    -0.17300
H885        H  0.12190224  0.79030225  0.43837580     0.20700
H886        H  0.15469608  0.69609355  0.48145932     0.19100
H887        H  0.19380278  0.73410449  0.51235669     0.19000
H888        H  0.08433818  0.75164453  0.40544521     0.14900
C889        C  0.32389369  0.90991221  0.45314819     0.30300
C890        C  0.32447388  0.88868960  0.47480465    -0.36000
C891        C  0.29756942  0.87756781  0.48316501     0.16300
C892        C  0.27182422  0.88664516  0.47120324     0.22100
C893        C  0.27127208  0.90757048  0.44922996    -0.34100
C894        C  0.29818211  0.91857979  0.44069889     0.16200
O895        O  0.34641571  0.92371971  0.44242610    -0.26100
C896        C  0.33494431  0.94113079  0.42258825     0.06000
C897        C  0.30509785  0.93873911  0.42044876    -0.31000
O898        O  0.24933285  0.87271639  0.48187101    -0.22800
C899        C  0.26079960  0.85458485  0.50110154    -0.02800
C900        C  0.29080759  0.85635928  0.50227855    -0.17300
H901        H  0.34448512  0.88133351  0.48444496     0.20700
H902        H  0.25127214  0.91462948  0.43931155     0.19100
H903        H  0.29057333  0.95072161  0.40651289     0.19000
H904        H  0.30577874  0.84258285  0.51361589     0.14900
C905        C  0.16453805  0.74215873  0.58251279     0.30300
C906        C  0.15873495  0.71487456  0.59447017    -0.36000
C907        C  0.13291762  0.71246310  0.61026754     0.16300
C908        C  0.11455861  0.73552266  0.61465344     0.22100
C909        C  0.12005091  0.76259919  0.60216873    -0.34100
C910        C  0.14538021  0.76476518  0.58567920     0.16200
O911        O  0.18787406  0.74961203  0.56790800    -0.26100
C912        C  0.18327761  0.77718340  0.56130621     0.06000
C913        C  0.15697772  0.78764478  0.57126718    -0.31000
O914        O  0.09207445  0.72871163  0.63081016    -0.22800
C915        C  0.09573218  0.70077987  0.63636754    -0.02800
C916        C  0.12065281  0.68940470  0.62398455    -0.17300
H917        H  0.17333870  0.69687548  0.59174346     0.20700
H918        H  0.10560662  0.78068809  0.60511939     0.19100
H919        H  0.14850953  0.80933315  0.56946031     0.19000
H920        H  0.12862574  0.66748664  0.62517941     0.14900
C921        C  0.32144152  0.90399923  0.61827726     0.30300
C922        C  0.32276582  0.88044462  0.59927068    -0.36000
C923        C  0.29634957  0.87133859  0.58765073     0.16300
C924        C  0.27043298  0.88457188  0.59402576     0.22100
C925        C  0.26897668  0.90758033  0.61373292    -0.34100
C926        C  0.29539047  0.91653463  0.62560942     0.16200
O927        O  0.34362893  0.91676125  0.63078618    -0.26100
C928        C  0.33154603  0.93724983  0.64688185     0.06000
C929        C  0.30161231  0.93810138  0.64463915    -0.31000
O930        O  0.24850357  0.87285457  0.58009921    -0.22800
C931        C  0.26061667  0.85200182  0.56447207    -0.02800
C932        C  0.29019731  0.84948575  0.56905254    -0.17300
H933        H  0.34298282  0.87017779  0.59367208     0.20700
H934        H  0.24875147  0.91788557  0.61923958     0.19100
H935        H  0.28678535  0.95308578  0.65476255     0.19000
H936        H  0.30479999  0.83318130  0.56097853     0.14900
C937        C  0.43587595  0.78859158  0.25710166     0.30300
C938        C  0.41751682  0.78179952  0.28022903    -0.36000
C939        C  0.38948072  0.77335599  0.27263102     0.16300
C940        C  0.38004045  0.77161025  0.24426463     0.22100
C941        C  0.39825555  0.77923068  0.22114149    -0.34100
C942        C  0.42634036  0.78780098  0.22878177     0.16200
O943        O  0.46341397  0.79524978  0.25917452    -0.26100
C944        C  0.47184213  0.79897630  0.23182148     0.06000
C945        C  0.44931913  0.79532875  0.21203245    -0.31000
O946        O  0.35303259  0.76255668  0.24227578    -0.22800
C947        C  0.34508428  0.75887209  0.26978294    -0.02800
C948        C  0.36693271  0.76524761  0.28952005    -0.17300
H949        H  0.42474682  0.78252610  0.30255356     0.20700
H950        H  0.39120657  0.77810278  0.19877573     0.19100
H951        H  0.44947924  0.79769783  0.18875482     0.19000
H952        H  0.36621105  0.76411428  0.31296909     0.14900
C953        C  0.63383445  0.77820881  0.23130368     0.30300
C954        C  0.65388838  0.75577720  0.23345471    -0.36000
C955        C  0.68186475  0.76383824  0.24143632     0.16300
C956        C  0.68962568  0.79201096  0.24730975     0.22100
C957        C  0.66963347  0.81466973  0.24428782    -0.34100
C958        C  0.64156960  0.80656635  0.23592685     0.16200
O959        O  0.60615378  0.77506757  0.22608071    -0.26100
C960        C  0.59561246  0.80175130  0.22684374     0.06000
C961        C  0.61698210  0.82240518  0.23238418    -0.31000
O962        O  0.71633415  0.79408372  0.25718713    -0.22800
C963        C  0.72585609  0.76694019  0.25693636    -0.02800
C964        C  0.70528512  0.74729071  0.24724412    -0.17300
H965        H  0.64784375  0.73345628  0.23003870     0.20700
H966        H  0.67527882  0.83684923  0.24905501     0.19100
H967        H  0.61500627  0.84558348  0.23389198     0.19000
H968        H  0.70671881  0.72397459  0.24652890     0.14900
C969        C  0.44538145  0.73106953  0.11410837     0.30300
C970        C  0.45984434  0.75733665  0.11890819    -0.36000
C971        C  0.47623790  0.75912483  0.14450659     0.16300
C972        C  0.47754383  0.73695422  0.16446727     0.22100
C973        C  0.46373865  0.71041481  0.15927017    -0.34100
C974        C  0.44800805  0.70833671  0.13328204     0.16200
O975        O  0.42862833  0.72478448  0.09178259    -0.26100
C976        C  0.42080027  0.69751889  0.09649517     0.06000
C977        C  0.43253499  0.68601717  0.12175300    -0.31000
O978        O  0.49245319  0.74400300  0.18786998    -0.22800
C979        C  0.50144434  0.77079422  0.18249753    -0.02800
C980        C  0.49230678  0.78118953  0.15568439    -0.17300
H981        H  0.45832009  0.77515317  0.10382201     0.20700
H982        H  0.46500085  0.69271131  0.17450967     0.19100
H983        H  0.42977373  0.66448820  0.13044277     0.19000
H984        H  0.49585144  0.80240154  0.14652001     0.14900
C985        C  0.45656018  0.90689329  0.32071977     0.30300
C986        C  0.47964454  0.88727065  0.32173052    -0.36000
C987        C  0.48526748  0.87210298  0.29599225     0.16300
C988        C  0.46949509  0.87619409  0.27094247     0.22100
C989        C  0.44620107  0.89549446  0.27002952    -0.34100
C990        C  0.44037474  0.91044317  0.29581124     0.16200
O991        O  0.44766883  0.92357344  0.34213178    -0.26100
C992        C  0.42527403  0.93769851  0.33088847     0.06000
C993        C  0.41971639  0.93035607  0.30215562    -0.31000
O994        O  0.47892519  0.86033512  0.24921454    -0.22800
C995        C  0.50113054  0.84584456  0.26034865    -0.02800
C996        C  0.50565620  0.85190228  0.28963915    -0.17300
H997        H  0.49239935  0.88414999  0.34116680     0.20700
H998        H  0.43355176  0.89869724  0.25052368     0.19100
H999        H  0.40316268  0.93882976  0.28790789     0.19000
H1000       H  0.52122840  0.84255354  0.30432551     0.14900
C1001       C  0.59631173  0.75946896  0.15161872     0.30300
C1002       C  0.61998222  0.75959300  0.13265142    -0.36000
C1003       C  0.62591004  0.73345458  0.11851581     0.16300
C1004       C  0.60955553  0.70885111  0.12254853     0.22100
C1005       C  0.58610427  0.70861012  0.14190412    -0.34100
C1006       C  0.58031603  0.73476348  0.15621048     0.16200
O1007       O  0.58697294  0.78157596  0.16699481    -0.26100
C1008       C  0.56461347  0.77104339  0.18177644     0.06000
C1009       C  0.55984607  0.74179704  0.17621157    -0.31000
O1010       O  0.61881755  0.68693599  0.10673977    -0.22800
C1011       C  0.64162067  0.69758954  0.09272092    -0.02800
C1012       C  0.64700629  0.72641911  0.09922199    -0.17300
H1013       H  0.63291230  0.77876627  0.12917077     0.20700
H1014       H  0.57325650  0.68939396  0.14554204     0.19100
H1015       H  0.54424494  0.72746114  0.18605666     0.19000
H1016       H  0.66386307  0.74023729  0.09072855     0.14900
C1017       C  0.61699172  0.90040906  0.32183989     0.30300
C1018       C  0.60501996  0.87248904  0.32086966    -0.36000
C1019       C  0.58897822  0.86562701  0.29587101     0.16300
C1020       C  0.58431057  0.88515321  0.27373835     0.22100
C1021       C  0.59636568  0.91298190  0.27465272    -0.34100
C1022       C  0.61309855  0.91953618  0.29921389     0.16200
O1023       O  0.63314603  0.91130730  0.34286272    -0.26100
C1024       C  0.64018211  0.93749078  0.33318028     0.06000
C1025       C  0.62838278  0.94373248  0.30616821    -0.31000
O1026       O  0.56910221  0.87406856  0.25217539    -0.22800
C1027       C  0.56426308  0.84693095  0.26038997    -0.02800
C1028       C  0.57621673  0.84042251  0.28735359    -0.17300
H1029       H  0.60846461  0.85701707  0.33809401     0.20700
H1030       H  0.59345400  0.92823163  0.25712834     0.19100
H1031       H  0.63034908  0.96348367  0.29378077     0.19000
H1032       H  0.57575604  0.82001400  0.29875867     0.14900
C1033       C  0.24585062  0.78254851  0.68679312     0.30300
C1034       C  0.22234900  0.78590421  0.66777207    -0.36000
C1035       C  0.22927135  0.79467790  0.63942771     0.16300
C1036       C  0.25723614  0.79934117  0.63050021     0.22100
C1037       C  0.28054957  0.79688652  0.64959764    -0.34100
C1038       C  0.27366589  0.78855826  0.67789099     0.16200
O1039       O  0.24493081  0.77227217  0.71351192    -0.26100
C1040       C  0.27247667  0.77246791  0.72186097     0.06000
C1041       C  0.29120128  0.78252363  0.70058282    -0.31000
O1042       O  0.25904759  0.80547665  0.60278810    -0.22800
C1043       C  0.23185649  0.80539691  0.59344061    -0.02800
C1044       C  0.21229772  0.79917681  0.61569718    -0.17300
H1045       H  0.20041909  0.78120801  0.67431673     0.20700
H1046       H  0.30256964  0.80049872  0.64267468     0.19100
H1047       H  0.31455870  0.78324448  0.70105798     0.19000
H1048       H  0.18908773  0.79847948  0.61526946     0.14900
C1049       C  0.39192597  0.76360090  0.81138359     0.30300
C1050       C  0.41948998  0.75488538  0.82027332    -0.36000
C1051       C  0.43809763  0.77701510  0.82908747     0.16300
C1052       C  0.43020966  0.80570722  0.82929432     0.22100
C1053       C  0.40275249  0.81451040  0.81999769    -0.34100
C1054       C  0.38412093  0.79236130  0.81100657     0.16200
O1055       O  0.37110010  0.74647430  0.80233812    -0.26100
C1056       C  0.34971014  0.76446327  0.79577256     0.06000
C1057       C  0.35662151  0.79333371  0.80063671    -0.31000
O1058       O  0.45126791  0.82270709  0.83809149    -0.22800
C1059       C  0.47298309  0.80472759  0.84348219    -0.02800
C1060       C  0.46594221  0.77600267  0.83809774    -0.17300
H1061       H  0.42599814  0.73246193  0.82020648     0.20700
H1062       H  0.39645910  0.83700639  0.81961594     0.19100
H1063       H  0.34328884  0.81221244  0.79719045     0.19000
H1064       H  0.47968026  0.75719432  0.83985633     0.14900
C1065       C  0.67636590  0.76471579  0.81602221     0.30300
C1066       C  0.64954054  0.75563279  0.82644710    -0.36000
C1067       C  0.62977491  0.77755878  0.83245173     0.16300
C1068       C  0.63593948  0.80647047  0.82895553     0.22100
C1069       C  0.66274207  0.81559803  0.81808796    -0.34100
C1070       C  0.68250540  0.79356616  0.81162027     0.16200
O1071       O  0.69779528  0.74772307  0.80862280    -0.26100
C1072       C  0.71795167  0.76578024  0.79906871     0.06000
C1073       C  0.70961169  0.79463364  0.80019170    -0.31000
O1074       O  0.61384412  0.82311281  0.83562640    -0.22800
C1075       C  0.59324941  0.80457215  0.84333804    -0.02800
C1076       C  0.60200395  0.77590872  0.84125787    -0.17300
H1077       H  0.64431315  0.73303563  0.82928683     0.20700
H1078       H  0.66764727  0.83817463  0.81452173     0.19100
H1079       H  0.72171494  0.81352089  0.79358130     0.19000
H1080       H  0.58943305  0.75653700  0.84480162     0.14900
C1081       C  0.48444508  0.74506019  0.91698564     0.30300
C1082       C  0.47939254  0.71718138  0.92775496    -0.36000
C1083       C  0.45584376  0.71421908  0.94665556     0.16300
C1084       C  0.43826652  0.73704651  0.95424656     0.22100
C1085       C  0.44344182  0.76501856  0.94358533    -0.34100
C1086       C  0.46718751  0.76801318  0.92486058     0.16200
O1087       O  0.50483484  0.75248305  0.89848589    -0.26100
C1088       C  0.50095171  0.78067178  0.89464148     0.06000
C1089       C  0.47772865  0.79149627  0.91050305    -0.31000
O1090       O  0.41741995  0.72928439  0.97218527    -0.22800
C1091       C  0.42184108  0.70115084  0.97626398    -0.02800
C1092       C  0.44550576  0.69064962  0.96097161    -0.17300
H1093       H  0.49284776  0.69906378  0.92175871     0.20700
H1094       H  0.42991089  0.78313058  0.94943953     0.19100
H1095       H  0.46939571  0.81331805  0.91068613     0.19000
H1096       H  0.45393854  0.66887235  0.96062576     0.14900
C1097       C  0.48384912  0.87722711  0.78143492     0.30300
C1098       C  0.47827875  0.88741432  0.75335258    -0.36000
C1099       C  0.45555615  0.90721734  0.75078813     0.16300
C1100       C  0.43894312  0.91580437  0.77410042     0.22100
C1101       C  0.44469797  0.90578250  0.80226107    -0.34100
C1102       C  0.46807292  0.88672162  0.80493050     0.16200
O1103       O  0.50372355  0.85823526  0.78869355    -0.26100
C1104       C  0.50111367  0.85587739  0.81729975     0.06000
C1105       C  0.47965721  0.87365326  0.82866219    -0.31000
O1106       O  0.41902297  0.93477441  0.76674332    -0.22800
C1107       C  0.42323926  0.93866824  0.73844744    -0.02800
C1108       C  0.44569581  0.92210924  0.72734646    -0.17300
H1109       H  0.49096642  0.88062639  0.73488772     0.20700
H1110       H  0.43219229  0.91273236  0.82079363     0.19100
H1111       H  0.47271453  0.87548306  0.85100430     0.19000
H1112       H  0.45379599  0.92147874  0.70533965     0.14900
C1113       C  0.61366320  0.90755266  0.75085458     0.30300
C1114       C  0.59239574  0.88590002  0.75043476    -0.36000
C1115       C  0.58411520  0.87488982  0.77756893     0.16300
C1116       C  0.59558805  0.88485297  0.80330973     0.22100
C1117       C  0.61740532  0.90591098  0.80368646    -0.34100
C1118       C  0.62599944  0.91661749  0.77655359     0.16200
O1119       O  0.62394584  0.92152910  0.72814145    -0.26100
C1120       C  0.64352059  0.93938171  0.73939122     0.06000
C1121       C  0.64585652  0.93715680  0.76940598    -0.31000
O1122       O  0.58403417  0.87225310  0.82618406    -0.22800
C1123       C  0.56499645  0.85377316  0.81503047    -0.02800
C1124       C  0.56460880  0.85403855  0.78480036    -0.17300
H1125       H  0.58281199  0.87836970  0.73041289     0.20700
H1126       H  0.62684977  0.91355411  0.82373170     0.19100
H1127       H  0.65948467  0.94954363  0.78386677     0.19000
H1128       H  0.55215807  0.84055544  0.77026839     0.14900
C1129       C  0.62823658  0.73439992  0.95073509     0.30300
C1130       C  0.62243177  0.76279599  0.94173742    -0.36000
C1131       C  0.59868827  0.76625096  0.92312287     0.16300
C1132       C  0.58210523  0.74333257  0.91372659     0.22100
C1133       C  0.58790814  0.71498825  0.92267062    -0.34100
C1134       C  0.61138001  0.71156653  0.94157373     0.16200
O1135       O  0.64867376  0.72629674  0.96894830    -0.26100
C1136       C  0.64472066  0.69793841  0.97162044     0.06000
C1137       C  0.62181419  0.68758509  0.95507562    -0.31000
O1138       O  0.56151016  0.75130805  0.89573547    -0.22800
C1139       C  0.56456876  0.77978994  0.89382595    -0.02800
C1140       C  0.58747628  0.79029813  0.91035550    -0.17300
H1141       H  0.63532257  0.78090372  0.94895017     0.20700
H1142       H  0.57491099  0.69692616  0.91555165     0.19100
H1143       H  0.61362157  0.66574230  0.95379679     0.19000
H1144       H  0.59530365  0.81226785  0.91179430     0.14900
C1145       C  0.24927914  0.20527117  0.68815629     0.30300
C1146       C  0.24539843  0.18189176  0.66916619    -0.36000
C1147       C  0.23654796  0.18896497  0.64092532     0.16300
C1148       C  0.23239504  0.21703270  0.63192838     0.22100
C1149       C  0.23550423  0.24028771  0.65100557    -0.34100
C1150       C  0.24385388  0.23320660  0.67926632     0.16200
O1151       O  0.25886519  0.20400947  0.71511426    -0.26100
C1152       C  0.25885685  0.23147106  0.72365758     0.06000
C1153       C  0.24972358  0.25048850  0.70218514    -0.31000
O1154       O  0.22631678  0.21888912  0.60416848    -0.22800
C1155       C  0.22612117  0.19162402  0.59504748    -0.02800
C1156       C  0.23174380  0.17200712  0.61731331    -0.17300
H1157       H  0.24958377  0.15985367  0.67572508     0.20700
H1158       H  0.23224171  0.26239270  0.64413213     0.19100
H1159       H  0.24891336  0.27383242  0.70288826     0.19000
H1160       H  0.23247668  0.14871132  0.61650248     0.14900
C1161       C  0.26958834  0.35220144  0.80976054     0.30300
C1162       C  0.28039969  0.37948521  0.81701878    -0.36000
C1163       C  0.25971687  0.40075128  0.82272823     0.16300
C1164       C  0.23038555  0.39564820  0.82157084     0.22100
C1165       C  0.21953993  0.36829852  0.81416137    -0.34100
C1166       C  0.24026165  0.34699765  0.80820416     0.16200
O1167       O  0.28509594  0.32938049  0.80305188    -0.26100
C1168       C  0.26550812  0.30929504  0.79686183     0.06000
C1169       C  0.23722064  0.31901681  0.79960712    -0.31000
O1170       O  0.21503980  0.41909601  0.82682964    -0.22800
C1171       C  0.23484062  0.43947964  0.83149106    -0.02800
C1172       C  0.26296529  0.42915525  0.82891416    -0.17300
H1173       H  0.30336464  0.38394508  0.81774198     0.20700
H1174       H  0.19660262  0.36407031  0.81263967     0.19100
H1175       H  0.21740951  0.30721417  0.79575982     0.19000
H1176       H  0.28301530  0.44114376  0.83026774     0.14900
C1177       C  0.25903492  0.59580822  0.81255863     0.30300
C1178       C  0.28271275  0.61295235  0.80499985    -0.36000
C1179       C  0.27648014  0.64154461  0.79768067     0.16300
C1180       C  0.24878704  0.65254117  0.79726724     0.22100
C1181       C  0.22499511  0.63534232  0.80512614    -0.34100
C1182       C  0.23134159  0.60671079  0.81296619     0.16200
O1183       O  0.26019753  0.56854502  0.82022274    -0.26100
C1184       C  0.23292420  0.56155435  0.82582102     0.06000
C1185       C  0.21400174  0.58473528  0.82217547    -0.31000
O1186       O  0.24821923  0.68010787  0.78994709    -0.22800
C1187       C  0.27596527  0.68678108  0.78619010    -0.02800
C1188       C  0.29444041  0.66357006  0.79061858    -0.17300
H1189       H  0.30454333  0.60463759  0.80515235     0.20700
H1190       H  0.20318300  0.64374481  0.80540816     0.19100
H1191       H  0.19109111  0.58584318  0.82635007     0.19000
H1192       H  0.31775400  0.66307113  0.78901566     0.14900
C1193       C  0.15121226  0.44024323  0.79100811     0.30300
C1194       C  0.12673395  0.42238618  0.79233405    -0.36000
C1195       C  0.11766235  0.41011502  0.76601276     0.16300
C1196       C  0.13127113  0.41553224  0.73993939     0.22100
C1197       C  0.15593857  0.43327541  0.73862696    -0.34100
C1198       C  0.16532954  0.44516392  0.76510696     0.16200
O1199       O  0.16362653  0.45347065  0.81313201    -0.26100
C1200       C  0.18606126  0.46706780  0.80132226     0.06000
C1201       C  0.18833995  0.46249722  0.77153671    -0.31000
O1202       O  0.11846072  0.40244174  0.71787634    -0.22800
C1203       C  0.09678032  0.38795387  0.73016132    -0.02800
C1204       C  0.09531992  0.39190788  0.76003073    -0.17300
H1205       H  0.11563657  0.41816262  0.81256428     0.20700
H1206       H  0.16707365  0.43744504  0.71842139     0.19100
H1207       H  0.20472448  0.47050993  0.75690646     0.19000
H1208       H  0.07948647  0.38331394  0.77500418     0.14900
C1209       C  0.32238028  0.42347469  0.93741052     0.30300
C1210       C  0.32396822  0.44576180  0.91673357    -0.36000
C1211       C  0.29774932  0.45372050  0.90357324     0.16300
C1212       C  0.27179923  0.44080924  0.91040414     0.22100
C1213       C  0.27030661  0.41816882  0.93060832    -0.34100
C1214       C  0.29649953  0.41003741  0.94357636     0.16200
O1215       O  0.34398968  0.41313439  0.95301260    -0.26100
C1216       C  0.33181837  0.39251814  0.96906701     0.06000
C1217       C  0.30235642  0.38951187  0.96392499    -0.31000
O1218       O  0.25000108  0.45144014  0.89536969    -0.22800
C1219       C  0.26197781  0.47163170  0.87865805    -0.02800
C1220       C  0.29183153  0.47348812  0.88245604    -0.17300
H1221       H  0.34416242  0.45621643  0.91136974     0.20700
H1222       H  0.25013133  0.40760479  0.93582320     0.19100
H1223       H  0.28731927  0.37494451  0.97434670     0.19000
H1224       H  0.30723683  0.48619374  0.87031912     0.14900
C1225       C  0.14889031  0.55721612  0.78978585     0.30300
C1226       C  0.12587230  0.57688454  0.79125857    -0.36000
C1227       C  0.11642786  0.58831926  0.76471368     0.16300
C1228       C  0.12832458  0.58041317  0.73843724     0.22100
C1229       C  0.15172332  0.56115999  0.73701974    -0.34100
C1230       C  0.16157695  0.55018330  0.76364776     0.16200
O1231       O  0.16180372  0.54481573  0.81204805    -0.26100
C1232       C  0.18334771  0.52996792  0.80013311     0.06000
C1233       C  0.18430270  0.53254482  0.77005022    -0.31000
O1234       O  0.11540068  0.59294468  0.71622409    -0.22800
C1235       C  0.09542794  0.60958864  0.72850866    -0.02800
C1236       C  0.09516996  0.60772821  0.75862384    -0.17300
H1237       H  0.11625082  0.58311372  0.81171231     0.20700
H1238       H  0.16168979  0.55533982  0.71661624     0.19100
H1239       H  0.20008494  0.52369545  0.75524326     0.19000
H1240       H  0.08078002  0.61840145  0.77369342     0.14900
C1241       C  0.29724876  0.59602397  0.94257175     0.30300
C1242       C  0.27011691  0.58980652  0.93038541    -0.36000
C1243       C  0.26965240  0.56843421  0.90875994     0.16300
C1244       C  0.29418869  0.55437099  0.89946258     0.22100
C1245       C  0.32136055  0.56063574  0.91154949    -0.34100
C1246       C  0.32176918  0.58173847  0.93346338     0.16200
O1247       O  0.30246954  0.61432546  0.96395976    -0.26100
C1248       C  0.33067879  0.61150763  0.96883233     0.06000
C1249       C  0.34379304  0.59158452  0.95044117    -0.31000
O1250       O  0.28863274  0.53477562  0.87939773    -0.22800
C1251       C  0.26008913  0.53589818  0.87607268    -0.02800
C1252       C  0.24722902  0.55674619  0.89359029    -0.17300
H1253       H  0.25064955  0.60043468  0.93768665     0.20700
H1254       H  0.34069177  0.54940876  0.90480543     0.19100
H1255       H  0.36619481  0.58497479  0.95003626     0.19000
H1256       H  0.22457007  0.56223551  0.89505096     0.14900
C1257       C  0.42606828  0.19942070  0.81894051     0.30300
C1258       C  0.39934376  0.18797022  0.81019309    -0.36000
C1259       C  0.37728758  0.20818650  0.80543248     0.16300
C1260       C  0.38132479  0.23741383  0.80967118     0.22100
C1261       C  0.40795450  0.24880349  0.81817945    -0.34100
C1262       C  0.43001717  0.22873491  0.82226961     0.16200
O1263       O  0.44994906  0.18475262  0.82368507    -0.26100
C1264       C  0.46948851  0.20495341  0.82987508     0.06000
C1265       C  0.45821911  0.23278549  0.82889914    -0.31000
O1266       O  0.35815242  0.25254828  0.80391683    -0.22800
C1267       C  0.33888015  0.23300245  0.79555033    -0.02800
C1268       C  0.34955017  0.20488790  0.79587315    -0.17300
H1269       H  0.39618086  0.16506748  0.80680715     0.20700
H1270       H  0.41135224  0.27176161  0.82085699     0.19100
H1271       H  0.46931649  0.25309320  0.83219738     0.19000
H1272       H  0.33855848  0.18510038  0.79001348     0.14900
C1273       C  0.46996405  0.12197614  0.79370369     0.30300
C1274       C  0.45188569  0.09778551  0.79638945    -0.36000
C1275       C  0.44038546  0.08683774  0.77045548     0.16300
C1276       C  0.44654592  0.09862423  0.74365508     0.22100
C1277       C  0.46370178  0.12354583  0.74109442    -0.34100
C1278       C  0.47491059  0.13471262  0.76711369     0.16200
O1279       O  0.48391201  0.13497653  0.81498270    -0.26100
C1280       C  0.49798946  0.15641004  0.80192049     0.06000
C1281       C  0.49233870  0.15790014  0.77227127    -0.31000
O1282       O  0.43502230  0.08371751  0.72212439    -0.22800
C1283       C  0.42079037  0.06251099  0.73540551    -0.02800
C1284       C  0.42316038  0.06350744  0.76546109    -0.17300
H1285       H  0.44752316  0.08787449  0.81718304     0.20700
H1286       H  0.46843117  0.13320764  0.72026297     0.19100
H1287       H  0.49976823  0.17384034  0.75683429     0.19000
H1288       H  0.41430863  0.04859556  0.78120780     0.14900
C1289       C  0.43716166  0.26955003  0.94328872     0.30300
C1290       C  0.44093678  0.24312008  0.92886533    -0.36000
C1291       C  0.46488295  0.24138491  0.91027746     0.16300
C1292       C  0.48339344  0.26422972  0.90555441     0.22100
C1293       C  0.47963283  0.29065666  0.91995037    -0.34100
C1294       C  0.45609581  0.29219487  0.93906413     0.16200
O1295       O  0.41668286  0.27575187  0.96222633    -0.26100
C1296       C  0.42272974  0.30266656  0.97036649     0.06000
C1297       C  0.44708061  0.31391848  0.95674520    -0.31000
O1298       O  0.50406059  0.25795321  0.88688890    -0.22800
C1299       C  0.49911086  0.23053707  0.87981231    -0.02800
C1300       C  0.47501343  0.21913216  0.89395165    -0.17300
H1301       H  0.42648714  0.22506532  0.93221161     0.20700
H1302       H  0.49422144  0.30862211  0.91673975     0.19100
H1303       H  0.45673693  0.33501626  0.95954246     0.19000
H1304       H  0.46588917  0.19771532  0.89186096     0.14900
C1305       C  0.59325474  0.12250674  0.79375286     0.30300
C1306       C  0.61632214  0.10284140  0.79551620    -0.36000
C1307       C  0.62419210  0.08902637  0.76950715     0.16300
C1308       C  0.61005269  0.09393269  0.74360724     0.22100
C1309       C  0.58744958  0.11408364  0.74173152    -0.34100
C1310       C  0.57979434  0.12804361  0.76767391     0.16200
O1311       O  0.58260798  0.13813236  0.81523585    -0.26100
C1312       C  0.56191373  0.15392413  0.80284632     0.06000
C1313       C  0.55977511  0.14886957  0.77308535    -0.31000
O1314       O  0.62011369  0.07779201  0.72222408    -0.22800
C1315       C  0.64133794  0.06260920  0.73440252    -0.02800
C1316       C  0.64497936  0.06890989  0.76375709    -0.17300
H1317       H  0.62739439  0.09860970  0.81578465     0.20700
H1318       H  0.57647648  0.11847972  0.72145928     0.19100
H1319       H  0.54693942  0.16013145  0.75718383     0.19000
H1320       H  0.66017646  0.05939156  0.77884586     0.14900
C1321       C  0.59273878  0.24174979  0.91171576     0.30300
C1322       C  0.61369014  0.24031723  0.93377970    -0.36000
C1323       C  0.62385234  0.26688430  0.94449192     0.16300
C1324       C  0.61367974  0.29309798  0.93463748     0.22100
C1325       C  0.59313631  0.29452455  0.91214755    -0.34100
C1326       C  0.58337104  0.26794033  0.90106689     0.16200
O1327       O  0.58052432  0.21958443  0.89841507    -0.26100
C1328       C  0.56319966  0.23166204  0.87874762     0.06000
C1329       C  0.56445049  0.26173021  0.87919102    -0.31000
O1330       O  0.62522188  0.31521838  0.94867865    -0.22800
C1331       C  0.64351651  0.30303348  0.96738253    -0.02800
C1332       C  0.64365060  0.27301578  0.96558662    -0.17300
H1333       H  0.62156461  0.21991026  0.94198501     0.20700
H1334       H  0.58529334  0.31491940  0.90388331     0.19100
H1335       H  0.55335238  0.27678086  0.86512475     0.19000
H1336       H  0.65581370  0.25791151  0.97867155     0.14900
C1337       C  0.79588317  0.21835779  0.68289758     0.30300
C1338       C  0.78533973  0.21033430  0.65561079    -0.36000
C1339       C  0.80616059  0.20580716  0.63415494     0.16300
C1340       C  0.83535791  0.20851866  0.63919253     0.22100
C1341       C  0.84599350  0.21679340  0.66653188    -0.34100
C1342       C  0.82506101  0.22176565  0.68800496     0.16200
O1343       O  0.77999358  0.22473666  0.70560385    -0.26100
C1344       C  0.79907224  0.23269365  0.72559102     0.06000
C1345       C  0.82756293  0.23130768  0.71590935    -0.31000
O1346       O  0.85081460  0.20339094  0.61575661    -0.22800
C1347       C  0.83129799  0.19739316  0.59537955    -0.02800
C1348       C  0.80308191  0.19897871  0.60570111    -0.17300
H1349       H  0.76248887  0.20828761  0.65129624     0.20700
H1350       H  0.86882320  0.21964395  0.67058052     0.19100
H1351       H  0.84707864  0.23698262  0.72750617     0.19000
H1352       H  0.78315512  0.19593143  0.59384069     0.14900
C1353       C  0.68015827  0.22376013  0.79638467     0.30300
C1354       C  0.65329324  0.21532558  0.78546549    -0.36000
C1355       C  0.63172703  0.21049507  0.80605453     0.16300
C1356       C  0.63611224  0.21345293  0.83547535     0.22100
C1357       C  0.66308768  0.22222034  0.84650432    -0.34100
C1358       C  0.68478528  0.22737792  0.82575865     0.16200
O1359       O  0.70312257  0.22959307  0.78073728    -0.26100
C1360       C  0.72288517  0.23739179  0.80011958     0.06000
C1361       C  0.71271585  0.23657606  0.82858365    -0.31000
O1362       O  0.61239685  0.20831464  0.85055336    -0.22800
C1363       C  0.59262126  0.20201153  0.83045687    -0.02800
C1364       C  0.60361006  0.20345753  0.80240322    -0.17300
H1365       H  0.64938445  0.21299171  0.76241771     0.20700
H1366       H  0.66676125  0.22518187  0.86951217     0.19100
H1367       H  0.72423965  0.24179703  0.84833800     0.19000
H1368       H  0.59225385  0.20079040  0.78205608     0.14900
C1369       C  0.82661074  0.39584692  0.83510915     0.30300
C1370       C  0.81727536  0.36920353  0.84615609    -0.36000
C1371       C  0.81362970  0.34708389  0.82570281     0.16300
C1372       C  0.81945125  0.35082820  0.79657280     0.22100
C1373       C  0.82865397  0.37745919  0.78555179    -0.34100
C1374       C  0.83158970  0.39967166  0.80589727     0.16200
O1375       O  0.83022614  0.41980302  0.85005969    -0.26100
C1376       C  0.83749643  0.43938696  0.83023945     0.06000
C1377       C  0.83810063  0.42797906  0.80223090    -0.31000
O1378       O  0.81350919  0.32773386  0.78111984    -0.22800
C1379       C  0.80341220  0.30896684  0.80046227    -0.02800
C1380       C  0.80293687  0.31982060  0.82861534    -0.17300
H1381       H  0.81236565  0.36621262  0.86890884     0.20700
H1382       H  0.83236459  0.38084802  0.76263601     0.19100
H1383       H  0.84215585  0.43903424  0.78196998     0.19000
H1384       H  0.79517778  0.30943545  0.84815215     0.14900
C1385       C  0.82129618  0.60452132  0.83296760     0.30300
C1386       C  0.81364985  0.63224435  0.84270735    -0.36000
C1387       C  0.80479559  0.65176469  0.82109447     0.16300
C1388       C  0.80404841  0.64453757  0.79202626     0.22100
C1389       C  0.81152423  0.61695672  0.78240555    -0.34100
C1390       C  0.81998258  0.59750675  0.80390130     0.16200
O1391       O  0.82939185  0.58244276  0.84917553    -0.26100
C1392       C  0.83328515  0.56123248  0.83004704     0.06000
C1393       C  0.82754366  0.56943227  0.80166490    -0.31000
O1394       O  0.79538198  0.66590918  0.77543273    -0.22800
C1395       C  0.79009502  0.68714043  0.79401531    -0.02800
C1396       C  0.79541788  0.67962668  0.82280143    -0.17300
H1397       H  0.81419529  0.63803770  0.86544424     0.20700
H1398       H  0.81054596  0.61099129  0.75973784     0.19100
H1399       H  0.82840202  0.55633213  0.78224465     0.19000
H1400       H  0.79301652  0.69285772  0.84200441     0.14900
C1401       C  0.91155817  0.45503985  0.77047300     0.30300
C1402       C  0.92459374  0.45076370  0.74334948    -0.36000
C1403       C  0.94457849  0.42809403  0.74177546     0.16300
C1404       C  0.95091103  0.41055736  0.76513975     0.22100
C1405       C  0.93814556  0.41510707  0.79237042    -0.34100
C1406       C  0.91857556  0.43812160  0.79405301     0.16200
O1407       O  0.89172088  0.47444798  0.77661852    -0.26100
C1408       C  0.88648121  0.47055426  0.80471530     0.06000
C1409       C  0.90258941  0.44811544  0.81667454    -0.31000
O1410       O  0.96955495  0.39008886  0.75855209    -0.22800
C1411       C  0.97546549  0.39476512  0.73068929    -0.02800
C1412       C  0.96068619  0.41823776  0.71913481    -0.17300
H1413       H  0.91940583  0.46406341  0.72478172     0.20700
H1414       H  0.94304725  0.40161671  0.81087790     0.19100
H1415       H  0.90184451  0.43984368  0.83861827     0.19000
H1416       H  0.96140257  0.42650785  0.69719311     0.14900
C1417       C  0.76876667  0.41308399  0.94829292     0.30300
C1418       C  0.79661302  0.42031185  0.93864519    -0.36000
C1419       C  0.79801990  0.44002083  0.91556412     0.16300
C1420       C  0.77373130  0.45140312  0.90254596     0.22100
C1421       C  0.74591443  0.44457325  0.91251833    -0.34100
C1422       C  0.74450763  0.42523390  0.93590051     0.16200
O1423       O  0.76238554  0.39487355  0.96934107    -0.26100
C1424       C  0.73369369  0.39571492  0.97072037     0.06000
C1425       C  0.72138094  0.41435378  0.95055941    -0.31000
O1426       O  0.78002160  0.46856523  0.88061501    -0.22800
C1427       C  0.80872947  0.46849310  0.87974080    -0.02800
C1428       C  0.82111856  0.45134498  0.90121407    -0.17300
H1429       H  0.81578325  0.41116291  0.94837625     0.20700
H1430       H  0.72674999  0.45361574  0.90268044     0.19100
H1431       H  0.69872813  0.41882557  0.94697050     0.19000
H1432       H  0.84380593  0.44734560  0.90512819     0.14900
C1433       C  0.74512717  0.57701995  0.93836622     0.30300
C1434       C  0.74374291  0.55712018  0.91534815    -0.36000
C1435       C  0.77031776  0.54914313  0.90301416     0.16300
C1436       C  0.79638419  0.55971790  0.91290924     0.22100
C1437       C  0.79772756  0.57993062  0.93551295    -0.34100
C1438       C  0.77120332  0.58820068  0.94755930     0.16200
O1439       O  0.72307583  0.58724060  0.95337132    -0.26100
C1440       C  0.73521761  0.60554765  0.97205902     0.06000
C1441       C  0.76508587  0.60710809  0.96932024    -0.31000
O1442       O  0.81860522  0.54908877  0.89863900    -0.22800
C1443       C  0.80671664  0.53150356  0.87920897    -0.02800
C1444       C  0.77666293  0.53098857  0.88060562    -0.17300
H1445       H  0.72344511  0.54846599  0.90764856     0.20700
H1446       H  0.81803499  0.58861302  0.94314722     0.19100
H1447       H  0.78009957  0.61990191  0.98191105     0.19000
H1448       H  0.76171771  0.51929568  0.86690766     0.14900
C1449       C  0.91013629  0.54975612  0.77021556     0.30300
C1450       C  0.92458322  0.55271464  0.74363648    -0.36000
C1451       C  0.94334515  0.57637320  0.74125673     0.16300
C1452       C  0.94749407  0.59601892  0.76337604     0.22100
C1453       C  0.93315699  0.59291066  0.79013143    -0.34100
C1454       C  0.91457496  0.56897949  0.79260022     0.16200
O1455       O  0.89163374  0.52919237  0.77699291    -0.26100
C1456       C  0.88438128  0.53470036  0.80435970     0.06000
C1457       C  0.89798216  0.55942549  0.81512055    -0.31000
O1458       O  0.96596631  0.61662214  0.75620582    -0.22800
C1459       C  0.97376544  0.60993572  0.72917386    -0.02800
C1460       C  0.96044356  0.58504068  0.71888002    -0.17300
H1461       H  0.92148582  0.53754418  0.72606268     0.20700
H1462       H  0.93635865  0.60796721  0.80778667     0.19100
H1463       H  0.89579735  0.56899815  0.83642436     0.19000
H1464       H  0.96301316  0.57482662  0.69792544     0.14900
loop_ 
_geom_bond_atom_site_label_1 
_geom_bond_atom_site_label_2 
_geom_bond_distance 
_geom_bond_site_symmetry_2 
_ccdc_geom_bond_type 
C1            C2   1.417       .  A
C1            C6   1.413       .  A
C1         C1392   1.482       .  S
C2            C3   1.419       .  A
C2         C1456   1.501       .  S
C3            C4   1.423       .  A
C3         C1408   1.488       .  S
C4            C5   1.419       .  A
C4         C1376   1.496       .  S
C5            C6   1.415       .  A
C5         C1427   1.486       .  S
C6         C1443   1.484       .  S
C7            C8   1.401       .  A
C7           C12   1.404       .  A
C7         C1360   1.474       .  S
C8            C9   1.399       .  A
C8           H13   1.084       .  S
C9           C10   1.399       .  A
C9         C1344   1.472       .  S
C10          C11   1.403       .  A
C10          H14   1.084       .  S
C11          C12   1.408       .  A
C11        C1379   1.472       .  S
C12          H15   1.083       .  S
C16          C17   1.424       .  A
C16          C21   1.426       .  A
C16        C1363   1.495       .  S
C17          C18   1.421       .  A
C17        C1328   1.494       .  S
C18          C19   1.422       .  A
C18        C1299   1.496       .  S
C19          C20   1.415       .  A
C19        C1264   1.491       .  S
C20          C21   1.418       .  A
C20        C1280   1.487       .  S
C21        C1312   1.498       .  S
C22          C23   1.423       .  A
C22          C27   1.421       .  A
C22        C1171   1.493       .  S
C23          C24   1.419       .  A
C23        C1219   1.495       .  S
C24          C25   1.418       .  A
C24        C1251   1.495       .  S
C25          C26   1.418       .  A
C25        C1184   1.488       .  S
C26          C27   1.417       .  A
C26        C1232   1.486       .  S
C27        C1200   1.488       .  S
C28          C29   1.406       .  A
C28          C33   1.406       .  A
C28        C1152   1.473       .  S
C29          C30   1.405       .  A
C29          H34   1.083       .  S
C30          C31   1.400       .  A
C30        C1267   1.470       .  S
C31          C32   1.394       .  A
C31          H35   1.084       .  S
C32          C33   1.398       .  A
C32        C1168   1.470       .  S
C33          H36   1.083       .  S
C37          C38   1.414       .  A
C37          C42   1.418       .  A
C37        C1059   1.488       .  S
C38          C39   1.412       .  A
C38        C1088   1.490       .  S
C39          C40   1.419       .  A
C39        C1139   1.486       .  S
C40          C41   1.417       .  A
C40        C1075   1.489       .  S
C41          C42   1.419       .  A
C41        C1123   1.487       .  S
C42        C1104   1.485       .  S
C43          C44   1.403       .  A
C43          C48   1.405       .  A
C43        C1187   1.474       .  S
C44          C45   1.403       .  A
C44          H49   1.083       .  S
C45          C46   1.403       .  A
C45        C1040   1.471       .  S
C46          C47   1.399       .  A
C46          H50   1.084       .  S
C47          C48   1.401       .  A
C47        C1056   1.473       .  S
C48          H51   1.084       .  S
C52          C53   1.423       .  A
C52          C57   1.427       .  A
C52         C960   1.496       .  S
C53          C54   1.418       .  A
C53        C1027   1.487       .  S
C54          C55   1.418       .  A
C54         C995   1.491       .  S
C55          C56   1.418       .  A
C55         C944   1.492       .  S
C56          C57   1.418       .  A
C56         C979   1.487       .  S
C57        C1008   1.496       .  S
C58          C59   1.419       .  A
C58          C63   1.415       .  A
C58        C1043   1.499       .  S
C59          C60   1.419       .  A
C59         C912   1.475       .  S
C60          C61   1.418       .  A
C60         C880   1.487       .  S
C61          C62   1.419       .  A
C61         C864   1.495       .  S
C62          C63   1.414       .  A
C62         C899   1.490       .  S
C63         C931   1.480       .  S
C64          C65   1.406       .  A
C64          C69   1.400       .  A
C64         C947   1.475       .  S
C65          C66   1.410       .  A
C65          H70   1.083       .  S
C66          C67   1.407       .  A
C66         C851   1.479       .  S
C67          C68   1.400       .  A
C67          H71   1.083       .  S
C68          C69   1.398       .  A
C68         C867   1.473       .  S
C69          H72   1.084       .  S
C73          C74   1.423       .  A
C73          C78   1.427       .  A
C73         C848   1.507       .  S
C74          C75   1.420       .  A
C74         C832   1.496       .  S
C75          C76   1.414       .  A
C75         C787   1.473       .  S
C76          C77   1.415       .  A
C76         C768   1.498       .  S
C77          C78   1.416       .  A
C77         C800   1.494       .  S
C78         C819   1.475       .  S
C79          C80   1.423       .  A
C79          C84   1.418       .  A
C79         C688   1.491       .  S
C80          C81   1.421       .  A
C80         C755   1.494       .  S
C81          C82   1.419       .  A
C81         C704   1.497       .  S
C82          C83   1.419       .  A
C82         C675   1.494       .  S
C83          C84   1.415       .  A
C83         C723   1.474       .  S
C84         C736   1.495       .  S
C85          C86   1.403       .  A
C85          C90   1.403       .  A
C85         C659   1.469       .  S
C86          C87   1.399       .  A
C86          H91   1.084       .  S
C87          C88   1.404       .  A
C87         C672   1.476       .  S
C88          C89   1.403       .  A
C88          H92   1.083       .  S
C89          C90   1.404       .  A
C89         C771   1.477       .  S
C90          H93   1.083       .  S
C94          C95   1.422       .  A
C94          C99   1.419       .  A
C94        C1155   1.490       .  S
C95          C96   1.415       .  A
C95         C608   1.480       .  S
C96          C97   1.417       .  A
C96         C627   1.493       .  S
C97          C98   1.418       .  A
C97         C656   1.490       .  S
C98          C99   1.417       .  A
C98         C640   1.480       .  S
C99         C595   1.497       .  S
C100        C101   1.424       .  A
C100        C105   1.424       .  A
C100        C499   1.487       .  S
C101        C102   1.415       .  A
C101        C547   1.497       .  S
C102        C103   1.421       .  A
C102        C576   1.497       .  S
C103        C104   1.419       .  A
C103        C512   1.487       .  S
C104        C105   1.417       .  A
C104        C563   1.488       .  S
C105        C528   1.496       .  S
C106        C107   1.424       .  A
C106        C111   1.421       .  A
C106       C1347   1.495       .  S
C107        C108   1.415       .  A
C107        C464   1.493       .  S
C108        C109   1.418       .  A
C108        C435   1.491       .  S
C109        C110   1.417       .  A
C109        C419   1.483       .  S
C110        C111   1.415       .  A
C110        C451   1.500       .  S
C111        C483   1.481       .  S
C112        C113   1.396       .  A
C112        C117   1.395       .  A
C112        C496   1.467       .  S
C113        C114   1.401       .  A
C113        H118   1.084       .  S
C114        C115   1.404       .  A
C114        C691   1.467       .  S
C115        C116   1.405       .  A
C115        H119   1.083       .  S
C116        C117   1.398       .  A
C116        C416   1.467       .  S
C117        H120   1.085       .  S
C121        C122   1.418       .  A
C121        C126   1.420       .  A
C121        C320   1.499       .  S
C122        C123   1.415       .  A
C122        C352   1.476       .  S
C123        C124   1.414       .  A
C123        C403   1.488       .  S
C124        C125   1.418       .  A
C124        C336   1.486       .  S
C125        C126   1.417       .  A
C125        C387   1.492       .  S
C126        C368   1.489       .  S
C127        C128   1.404       .  A
C127        C132   1.403       .  A
C127        C323   1.476       .  S
C128        C129   1.405       .  A
C128        H133   1.083       .  S
C129        C130   1.406       .  A
C129        C963   1.475       .  S
C130        C131   1.401       .  A
C130        H134   1.083       .  S
C131        C132   1.399       .  A
C131        C515   1.474       .  S
C132        H135   1.084       .  S
C136        C137   1.402       .  A
C136        C141   1.402       .  A
C136        C339   1.470       .  S
C137        C138   1.404       .  A
C137        H142   1.083       .  S
C138        C139   1.403       .  A
C138       C1072   1.468       .  S
C139        C140   1.398       .  A
C139        H143   1.084       .  S
C140        C141   1.399       .  A
C140       C1395   1.470       .  S
C141        H144   1.084       .  S
O145       Cu153   2.012       .  S
O145        C155   1.277   1_455  A
O146       Cu153   2.016       .  S
O146        C156   1.279       .  A
O147       Cu153   2.019       .  S
O147        C157   1.278       .  A
O148       Cu153   2.018       .  S
O148        C158   1.278   1_455  A
O149       Cu154   2.017       .  S
O149        C158   1.279   1_455  A
O150       Cu154   2.014       .  S
O150        C157   1.277       .  A
O151       Cu154   2.009       .  S
O151        C156   1.277       .  A
O152       Cu154   2.017       .  S
O152        C155   1.279   1_455  A
Cu153      Cu154   2.375       .  S
C155        C384   1.472       .  S
C156       C1235   1.469       .  S
C157        C915   1.468       .  S
C158       C1459   1.475       .  S
O159       Cu167   2.017       .  S
O159        C169   1.279       .  A
O160       Cu167   2.018   1_565  S
O160        C170   1.279       .  A
O161       Cu167   2.024   1_565  S
O161        C171   1.279       .  A
O162       Cu167   2.025       .  S
O162        C172   1.279       .  A
O163       Cu168   2.028   1_545  S
O163        C172   1.279       .  A
O164       Cu168   2.023       .  S
O164        C171   1.279       .  A
O165       Cu168   2.012       .  S
O165        C170   1.277       .  A
O166       Cu168   2.014   1_545  S
O166        C169   1.278       .  A
Cu167      Cu168   2.374   1_545  S
C169        C467   1.473       .  S
C170       C1120   1.471       .  S
C171        C400   1.477       .  S
C172       C1315   1.481       .  S
O173       Cu181   2.024       .  S
O173        C183   1.278       .  A
O174       Cu181   2.016       .  S
O174        C184   1.279   1_554  A
O175       Cu181   2.020       .  S
O175        C185   1.278   1_554  A
O176       Cu181   2.015       .  S
O176        C186   1.277       .  A
O177       Cu182   2.016       .  S
O177        C186   1.279       .  A
O178       Cu182   2.016       .  S
O178        C185   1.279   1_554  A
O179       Cu182   2.012       .  S
O179        C184   1.277   1_554  A
O180       Cu182   2.014       .  S
O180        C183   1.278       .  A
Cu181      Cu182   2.374       .  S
C183        C560   1.474       .  S
C184       C1136   1.471       .  S
C185       C1440   1.473       .  S
C186       C1011   1.473       .  S
O187       Cu195   2.004       .  S
O187        C197   1.277       .  A
O188       Cu195   2.014   1_545  S
O188        C198   1.278       .  A
O189       Cu195   2.010   1_545  S
O189        C199   1.277       .  A
O190       Cu195   2.010       .  S
O190        C200   1.277       .  A
O191       Cu196   2.012       .  S
O191        C200   1.278       .  A
O192       Cu196   2.008   1_545  S
O192        C199   1.277       .  A
O193       Cu196   2.016   1_545  S
O193        C198   1.278       .  A
O194       Cu196   2.009       .  S
O194        C197   1.277       .  A
Cu195      Cu196   2.377       .  S
C197        C928   1.462       .  S
C198       C1283   1.470       .  S
C199        C611   1.462       .  S
C200       C1107   1.468       .  S
O201       Cu209   2.016       .  S
O201        C211   1.277   1_455  A
O202       Cu209   2.020       .  S
O202        C212   1.277       .  A
O203       Cu209   2.015       .  S
O203        C213   1.278       .  A
O204       Cu209   2.014       .  S
O204        C214   1.278   1_455  A
O205       Cu210   2.010       .  S
O205        C214   1.277   1_455  A
O206       Cu210   2.021       .  S
O206        C213   1.278       .  A
O207       Cu210   2.021       .  S
O207        C212   1.280       .  A
O208       Cu210   2.012   1_655  S
O208        C211   1.278       .  A
Cu209      Cu210   2.375       .  S
C211        C480   1.468       .  S
C212       C1203   1.475       .  S
C213        C592   1.475       .  S
C214       C1411   1.469       .  S
O215       Cu223   2.013       .  S
O215        C225   1.278   1_554  A
O216       Cu223   2.008       .  S
O216        C226   1.276       .  A
O217       Cu223   2.019       .  S
O217        C227   1.278       .  A
O218       Cu223   2.016       .  S
O218        C228   1.279   1_554  A
O219       Cu224   2.016       .  S
O219        C228   1.278   1_554  A
O220       Cu224   2.024       .  S
O220        C227   1.278       .  A
O221       Cu224   2.025       .  S
O221        C226   1.279       .  A
O222       Cu224   2.026       .  S
O222        C225   1.279   1_554  A
Cu223      Cu224   2.375       .  S
C225       C1248   1.476       .  S
C226        C976   1.470       .  S
C227        C816   1.472       .  S
C228       C1091   1.473       .  S
O229       Cu237   2.010       .  S
O229        C239   1.278       .  A
O230       Cu237   2.011       .  S
O230        C240   1.278   1_554  A
O231       Cu237   2.023   1_556  S
O231        C241   1.278       .  A
O232       Cu237   2.027       .  S
O232        C242   1.279       .  A
O233       Cu238   2.033       .  S
O233        C242   1.280       .  A
O234       Cu238   2.033   1_556  S
O234        C241   1.281       .  A
O235       Cu238   2.012       .  S
O235        C240   1.277   1_554  A
O236       Cu238   2.018       .  S
O236        C239   1.278       .  A
Cu237      Cu238   2.373       .  S
C239        C752   1.473       .  S
C240       C1424   1.468       .  S
C241       C1331   1.481       .  S
C242        C531   1.483       .  S
O243       Cu251   2.007   1_545  S
O243        C253   1.278       .  A
O244       Cu251   2.008       .  S
O244        C254   1.276       .  A
O245       Cu251   2.025       .  S
O245        C255   1.279       .  A
O246       Cu251   2.023   1_545  S
O246        C256   1.279       .  A
O247       Cu252   2.022   1_545  S
O247        C256   1.279       .  A
O248       Cu252   2.019       .  S
O248        C255   1.277       .  A
O249       Cu252   2.016       .  S
O249        C254   1.278       .  A
O250       Cu252   2.020   1_545  S
O250        C253   1.278       .  A
Cu251      Cu252   2.375       .  S
C253        C739   1.473       .  S
C254        C355   1.466       .  S
C255       C1024   1.472       .  S
C256        C432   1.477       .  S
O257       Cu265   2.016       .  S
O257        C267   1.278   1_455  A
O258       Cu265   2.007       .  S
O258        C268   1.277       .  A
O259       Cu265   2.015       .  S
O259        C269   1.278       .  A
O260       Cu265   2.016       .  S
O260        C270   1.278   1_455  A
O261       Cu266   2.021       .  S
O261        C270   1.279   1_455  A
O262       Cu266   2.025       .  S
O262        C269   1.279       .  A
O263       Cu266   2.020       .  S
O263        C268   1.279       .  A
O264       Cu266   2.017       .  S
O264        C267   1.278   1_455  A
Cu265      Cu266   2.374       .  S
C267        C371   1.472       .  S
C268        C835   1.472       .  S
C269        C883   1.474       .  S
C270        C579   1.475       .  S
O271       Cu279   2.005       .  S
O271        C281   1.276       .  A
O272       Cu279   2.012       .  S
O272        C282   1.277   1_455  A
O273       Cu279   2.025       .  S
O273        C283   1.280   1_455  A
O274       Cu279   2.020       .  S
O274        C284   1.279       .  A
O275       Cu280   2.015       .  S
O275        C284   1.277       .  A
O276       Cu280   2.029       .  S
O276        C283   1.279   1_455  A
O277       Cu280   2.017       .  S
O277        C282   1.279   1_455  A
O278       Cu280   2.006       .  S
O278        C281   1.277       .  A
Cu279      Cu280   2.376       .  S
C281        C784   1.461       .  S
C282        C448   1.473       .  S
C283        C544   1.480       .  S
C284        C643   1.468       .  S
O285       Cu293   2.012   1_565  S
O285        C295   1.277       .  A
O286       Cu293   2.011       .  S
O286        C296   1.278       .  A
O287       Cu293   2.016       .  S
O287        C297   1.277       .  A
O288       Cu293   2.015   1_565  S
O288        C298   1.278       .  A
O289       Cu294   2.009   1_565  S
O289        C298   1.278       .  A
O290       Cu294   2.012       .  S
O290        C297   1.279       .  A
O291       Cu294   1.998       .  S
O291        C296   1.275       .  A
O292       Cu294   1.999   1_565  S
O292        C295   1.276       .  A
Cu293      Cu294   2.377       .  S
C295        C896   1.464       .  S
C296        C720   1.459       .  S
C297        C624   1.472       .  S
C298        C992   1.470       .  S
O299       Cu307   2.016       .  S
O299        C309   1.278       .  A
O300       Cu307   2.019       .  S
O300        C310   1.279   1_554  A
O301       Cu307   2.022       .  S
O301        C311   1.279   1_554  A
O302       Cu307   2.021       .  S
O302        C312   1.278       .  A
O303       Cu308   2.007       .  S
O303        C312   1.278       .  A
O304       Cu308   2.004       .  S
O304        C311   1.277   1_554  A
O305       Cu308   2.018       .  S
O305        C310   1.278   1_554  A
O306       Cu308   2.011       .  S
O306        C309   1.278       .  A
Cu307      Cu308   2.374       .  S
C309        C707   1.472       .  S
C310       C1216   1.475       .  S
C311       C1296   1.472       .  S
C312        C803   1.473       .  S
C313        C318   1.376       .  A
C313        C314   1.408       .  A
C313        O319   1.319       .  A
C314        C315   1.407       .  A
C314        H325   1.082       .  S
C315        C324   1.367       .  A
C315        C316   1.380       .  A
C316        C317   1.398       .  A
C316        O322   1.312       .  A
C317        C318   1.396       .  A
C317        H326   1.082       .  S
C318        C321   1.355       .  A
O319        C320   1.334       .  A
C320        C321   1.392       .  A
C321        H327   1.081       .  S
O322        C323   1.328       .  A
C323        C324   1.395       .  A
C324        H328   1.082       .  S
C329        C334   1.379       .  A
C329        C330   1.406       .  A
C329        O335   1.319       .  A
C330        C331   1.406       .  A
C330        H341   1.082       .  S
C331        C340   1.366       .  A
C331        C332   1.381       .  A
C332        C333   1.396       .  A
C332        O338   1.312       .  A
C333        C334   1.395       .  A
C333        H342   1.082       .  S
C334        C337   1.352       .  A
O335        C336   1.333       .  A
C336        C337   1.389       .  A
C337        H343   1.082       .  S
O338        C339   1.327       .  A
C339        C340   1.394       .  A
C340        H344   1.082       .  S
C345        C350   1.380       .  A
C345        C346   1.402       .  A
C345        O351   1.318       .  A
C346        C347   1.403       .  A
C346        H357   1.081       .  S
C347        C356   1.361       .  A
C347        C348   1.381       .  A
C348        C349   1.402       .  A
C348        O354   1.318       .  A
C349        C350   1.400       .  A
C349        H358   1.081       .  S
C350        C353   1.357       .  A
O351        C352   1.329       .  A
C352        C353   1.389       .  A
C353        H359   1.082       .  S
O354        C355   1.330       .  A
C355        C356   1.390       .  A
C356        H360   1.082       .  S
C361        C366   1.379       .  A
C361        C362   1.404       .  A
C361        O367   1.317       .  A
C362        C363   1.403       .  A
C362        H373   1.082       .  S
C363        C372   1.365       .  A
C363        C364   1.380       .  A
C364        C365   1.404       .  A
C364        O370   1.318       .  A
C365        C366   1.402       .  A
C365        H374   1.082       .  S
C366        C369   1.363       .  A
O367        C368   1.331       .  A
C368        C369   1.392       .  A
C369        H375   1.082       .  S
O370        C371   1.331       .  A
C371        C372   1.393       .  A
C372        H376   1.082       .  S
C377        C382   1.380       .  A
C377        C378   1.406       .  A
C377        O383   1.320       .  A
C378        C379   1.404       .  A
C378        H389   1.082       .  S
C379        C388   1.364       .  A
C379        C380   1.379       .  A
C380        C381   1.402       .  A
C380        O386   1.316       .  A
C381        C382   1.401       .  A
C381        H390   1.082       .  S
C382        C385   1.361       .  A
O383        C384   1.332       .  A
C384        C385   1.391       .  A
C385        H391   1.082       .  S
O386        C387   1.329       .  A
C387        C388   1.394       .  A
C388        H392   1.082       .  S
C393        C398   1.380       .  A
C393        C394   1.406       .  A
C393        O399   1.322       .  A
C394        C395   1.405       .  A
C394        H405   1.081       .  S
C395        C404   1.364       .  A
C395        C396   1.379       .  A
C396        C397   1.404       .  A
C396        O402   1.319       .  A
C397        C398   1.404       .  A
C397        H406   1.081       .  S
C398        C401   1.364       .  A
O399        C400   1.332       .  A
C400        C401   1.393       .  A
C401        H407   1.082       .  S
O402        C403   1.331       .  A
C403        C404   1.393       .  A
C404        H408   1.081       .  S
C409        C414   1.381       .  A
C409        C410   1.399       .  A
C409        O415   1.311       .  A
C410        C411   1.396       .  A
C410        H421   1.082       .  S
C411        C420   1.354       .  A
C411        C412   1.379       .  A
C412        C413   1.400       .  A
C412        O418   1.313       .  A
C413        C414   1.399       .  A
C413        H422   1.082       .  S
C414        C417   1.361       .  A
O415        C416   1.329       .  A
C416        C417   1.390       .  A
C417        H423   1.082       .  S
O418        C419   1.327       .  A
C419        C420   1.392       .  A
C420        H424   1.082       .  S
C425        C430   1.380       .  A
C425        C426   1.405       .  A
C425        O431   1.320       .  A
C426        C427   1.404       .  A
C426        H437   1.081       .  S
C427        C436   1.362       .  A
C427        C428   1.379       .  A
C428        C429   1.407       .  A
C428        O434   1.322       .  A
C429        C430   1.407       .  A
C429        H438   1.081       .  S
C430        C433   1.367       .  A
O431        C432   1.331       .  A
C432        C433   1.394       .  A
C433        H439   1.082       .  S
O434        C435   1.332       .  A
C435        C436   1.393       .  A
C436        H440   1.082       .  S
C441        C446   1.380       .  A
C441        C442   1.405       .  A
C441        O447   1.321       .  A
C442        C443   1.405       .  A
C442        H453   1.082       .  S
C443        C452   1.362       .  A
C443        C444   1.379       .  A
C444        C445   1.404       .  A
C444        O450   1.321       .  A
C445        C446   1.404       .  A
C445        H454   1.082       .  S
C446        C449   1.362       .  A
O447        C448   1.332       .  A
C448        C449   1.391       .  A
C449        H455   1.082       .  S
O450        C451   1.332       .  A
C451        C452   1.397       .  A
C452        H456   1.082       .  S
C457        C462   1.379       .  A
C457        C458   1.407       .  A
C457        O463   1.322       .  A
C458        C459   1.407       .  A
C458        H469   1.081       .  S
C459        C468   1.366       .  A
C459        C460   1.380       .  A
C460        C461   1.402       .  A
C460        O466   1.319       .  A
C461        C462   1.401       .  A
C461        H470   1.081       .  S
C462        C465   1.359       .  A
O463        C464   1.333       .  A
C464        C465   1.392       .  A
C465        H471   1.082       .  S
O466        C467   1.330       .  A
C467        C468   1.394       .  A
C468        H472   1.082       .  S
C473        C478   1.381       .  A
C473        C474   1.401       .  A
C473        O479   1.317       .  A
C474        C475   1.400       .  A
C474        H485   1.082       .  S
C475        C484   1.359       .  A
C475        C476   1.380       .  A
C476        C477   1.406       .  A
C476        O482   1.320       .  A
C477        C478   1.405       .  A
C477        H486   1.082       .  S
C478        C481   1.365       .  A
O479        C480   1.329       .  A
C480        C481   1.393       .  A
C481        H487   1.082       .  S
O482        C483   1.332       .  A
C483        C484   1.389       .  A
C484        H488   1.082       .  S
C489        C494   1.381       .  A
C489        C490   1.395       .  A
C489        O495   1.311       .  A
C490        C491   1.394       .  A
C490        H501   1.083       .  S
C491        C500   1.349       .  A
C491        C492   1.378       .  A
C492        C493   1.403       .  A
C492        O498   1.317       .  A
C493        C494   1.402       .  A
C493        H502   1.082       .  S
C494        C497   1.360       .  A
O495        C496   1.327       .  A
C496        C497   1.392       .  A
C497        H503   1.082       .  S
O498        C499   1.331       .  A
C499        C500   1.391       .  A
C500        H504   1.081       .  S
C505        C510   1.379       .  A
C505        C506   1.404       .  A
C505        O511   1.319       .  A
C506        C507   1.404       .  A
C506        H517   1.082       .  S
C507        C516   1.363       .  A
C507        C508   1.380       .  A
C508        C509   1.399       .  A
C508        O514   1.315       .  A
C509        C510   1.398       .  A
C509        H518   1.081       .  S
C510        C513   1.353       .  A
O511        C512   1.331       .  A
C512        C513   1.392       .  A
C513        H519   1.082       .  S
O514        C515   1.329       .  A
C515        C516   1.393       .  A
C516        H520   1.082       .  S
C521        C526   1.379       .  A
C521        C522   1.407       .  A
C521        O527   1.323       .  A
C522        C523   1.407       .  A
C522        H533   1.081       .  S
C523        C532   1.366       .  A
C523        C524   1.379       .  A
C524        C525   1.409       .  A
C524        O530   1.325       .  A
C525        C526   1.408       .  A
C525        H534   1.081       .  S
C526        C529   1.366       .  A
O527        C528   1.332       .  A
C528        C529   1.395       .  A
C529        H535   1.082       .  S
O530        C531   1.334       .  A
C531        C532   1.393       .  A
C532        H536   1.082       .  S
C537        C542   1.380       .  A
C537        C538   1.407       .  A
C537        O543   1.323       .  A
C538        C539   1.407       .  A
C538        H549   1.082       .  S
C539        C548   1.364       .  A
C539        C540   1.379       .  A
C540        C541   1.406       .  A
C540        O546   1.322       .  A
C541        C542   1.406       .  A
C541        H550   1.082       .  S
C542        C545   1.365       .  A
O543        C544   1.333       .  A
C544        C545   1.393       .  A
C545        H551   1.082       .  S
O546        C547   1.332       .  A
C547        C548   1.397       .  A
C548        H552   1.082       .  S
C553        C558   1.380       .  A
C553        C554   1.409       .  A
C553        O559   1.324       .  A
C554        C555   1.408       .  A
C554        H565   1.081       .  S
C555        C564   1.367       .  A
C555        C556   1.380       .  A
C556        C557   1.403       .  A
C556        O562   1.319       .  A
C557        C558   1.402       .  A
C557        H566   1.081       .  S
C558        C561   1.361       .  A
O559        C560   1.333       .  A
C560        C561   1.390       .  A
C561        H567   1.082       .  S
O562        C563   1.330       .  A
C563        C564   1.394       .  A
C564        H568   1.082       .  S
C569        C574   1.378       .  A
C569        C570   1.405       .  A
C569        O575   1.318       .  A
C570        C571   1.404       .  A
C570        H581   1.082       .  S
C571        C580   1.364       .  A
C571        C572   1.380       .  A
C572        C573   1.405       .  A
C572        O578   1.320       .  A
C573        C574   1.404       .  A
C573        H582   1.082       .  S
C574        C577   1.363       .  A
O575        C576   1.331       .  A
C576        C577   1.394       .  A
C577        H583   1.082       .  S
O578        C579   1.332       .  A
C579        C580   1.392       .  A
C580        H584   1.082       .  S
C585        C590   1.380       .  A
C585        C586   1.403       .  A
C585        O591   1.318       .  A
C586        C587   1.402       .  A
C586        H597   1.082       .  S
C587        C596   1.362       .  A
C587        C588   1.378       .  A
C588        C589   1.408       .  A
C588        O594   1.321       .  A
C589        C590   1.407       .  A
C589        H598   1.083       .  S
C590        C593   1.368       .  A
O591        C592   1.330       .  A
C592        C593   1.395       .  A
C593        H599   1.083       .  S
O594        C595   1.334       .  A
C595        C596   1.393       .  A
C596        H600   1.080       .  S
C601        C606   1.381       .  A
C601        C602   1.402       .  A
C601        O607   1.319       .  A
C602        C603   1.401       .  A
C602        H613   1.081       .  S
C603        C612   1.360       .  A
C603        C604   1.381       .  A
C604        C605   1.406       .  A
C604        O610   1.321       .  A
C605        C606   1.405       .  A
C605        H614   1.082       .  S
C606        C609   1.363       .  A
O607        C608   1.330       .  A
C608        C609   1.392       .  A
C609        H615   1.082       .  S
O610        C611   1.332       .  A
C611        C612   1.386       .  A
C612        H616   1.082       .  S
C617        C622   1.380       .  A
C617        C618   1.405       .  A
C617        O623   1.321       .  A
C618        C619   1.404       .  A
C618        H629   1.083       .  S
C619        C628   1.362       .  A
C619        C620   1.379       .  A
C620        C621   1.401       .  A
C620        O626   1.316       .  A
C621        C622   1.401       .  A
C621        H630   1.083       .  S
C622        C625   1.359       .  A
O623        C624   1.332       .  A
C624        C625   1.390       .  A
C625        H631   1.082       .  S
O626        C627   1.332       .  A
C627        C628   1.395       .  A
C628        H632   1.082       .  S
C633        C638   1.381       .  A
C633        C634   1.403       .  A
C633        O639   1.319       .  A
C634        C635   1.403       .  A
C634        H645   1.081       .  S
C635        C644   1.361       .  A
C635        C636   1.380       .  A
C636        C637   1.406       .  A
C636        O642   1.322       .  A
C637        C638   1.405       .  A
C637        H646   1.081       .  S
C638        C641   1.363       .  A
O639        C640   1.330       .  A
C640        C641   1.392       .  A
C641        H647   1.082       .  S
O642        C643   1.332       .  A
C643        C644   1.388       .  A
C644        H648   1.082       .  S
C649        C654   1.378       .  A
C649        C650   1.399       .  A
C649        O655   1.313       .  A
C650        C651   1.399       .  A
C650        H661   1.082       .  S
C651        C660   1.355       .  A
C651        C652   1.381       .  A
C652        C653   1.402       .  A
C652        O658   1.318       .  A
C653        C654   1.401       .  A
C653        H662   1.082       .  S
C654        C657   1.359       .  A
O655        C656   1.331       .  A
C656        C657   1.394       .  A
C657        H663   1.080       .  S
O658        C659   1.330       .  A
C659        C660   1.390       .  A
C660        H664   1.083       .  S
C665        C670   1.380       .  A
C665        C666   1.405       .  A
C665        O671   1.320       .  A
C666        C667   1.404       .  A
C666        H677   1.082       .  S
C667        C676   1.361       .  A
C667        C668   1.378       .  A
C668        C669   1.399       .  A
C668        O674   1.314       .  A
C669        C670   1.399       .  A
C669        H678   1.082       .  S
C670        C673   1.356       .  A
O671        C672   1.333       .  A
C672        C673   1.391       .  A
C673        H679   1.082       .  S
O674        C675   1.331       .  A
C675        C676   1.397       .  A
C676        H680   1.078       .  S
C681        C686   1.378       .  A
C681        C682   1.407       .  A
C681        O687   1.319       .  A
C682        C683   1.406       .  A
C682        H693   1.082       .  S
C683        C692   1.367       .  A
C683        C684   1.381       .  A
C684        C685   1.395       .  A
C684        O690   1.309       .  A
C685        C686   1.393       .  A
C685        H694   1.082       .  S
C686        C689   1.352       .  A
O687        C688   1.332       .  A
C688        C689   1.390       .  A
C689        H695   1.082       .  S
O690        C691   1.326       .  A
C691        C692   1.393       .  A
C692        H696   1.082       .  S
C697        C702   1.378       .  A
C697        C698   1.404       .  A
C697        O703   1.319       .  A
C698        C699   1.404       .  A
C698        H709   1.082       .  S
C699        C708   1.362       .  A
C699        C700   1.380       .  A
C700        C701   1.404       .  A
C700        O706   1.320       .  A
C701        C702   1.404       .  A
C701        H710   1.082       .  S
C702        C705   1.362       .  A
O703        C704   1.332       .  A
C704        C705   1.395       .  A
C705        H711   1.082       .  S
O706        C707   1.331       .  A
C707        C708   1.392       .  A
C708        H712   1.082       .  S
C713        C718   1.381       .  A
C713        C714   1.404       .  A
C713        O719   1.318       .  A
C714        C715   1.403       .  A
C714        H725   1.082       .  S
C715        C724   1.363       .  A
C715        C716   1.381       .  A
C716        C717   1.400       .  A
C716        O722   1.316       .  A
C717        C718   1.399       .  A
C717        H726   1.081       .  S
C718        C721   1.360       .  A
O719        C720   1.330       .  A
C720        C721   1.387       .  A
C721        H727   1.082       .  S
O722        C723   1.328       .  A
C723        C724   1.391       .  A
C724        H728   1.082       .  S
C729        C734   1.379       .  A
C729        C730   1.403       .  A
C729        O735   1.318       .  A
C730        C731   1.402       .  A
C730        H741   1.081       .  S
C731        C740   1.361       .  A
C731        C732   1.380       .  A
C732        C733   1.407       .  A
C732        O738   1.322       .  A
C733        C734   1.407       .  A
C733        H742   1.081       .  S
C734        C737   1.365       .  A
O735        C736   1.331       .  A
C736        C737   1.396       .  A
C737        H743   1.081       .  S
O738        C739   1.332       .  A
C739        C740   1.391       .  A
C740        H744   1.082       .  S
C745        C750   1.380       .  A
C745        C746   1.406       .  A
C745        O751   1.322       .  A
C746        C747   1.405       .  A
C746        H757   1.082       .  S
C747        C756   1.363       .  A
C747        C748   1.378       .  A
C748        C749   1.401       .  A
C748        O754   1.317       .  A
C749        C750   1.401       .  A
C749        H758   1.082       .  S
C750        C753   1.359       .  A
O751        C752   1.333       .  A
C752        C753   1.390       .  A
C753        H759   1.082       .  S
O754        C755   1.329       .  A
C755        C756   1.396       .  A
C756        H760   1.082       .  S
C761        C766   1.378       .  A
C761        C762   1.407       .  A
C761        O767   1.322       .  A
C762        C763   1.407       .  A
C762        H773   1.081       .  S
C763        C772   1.366       .  A
C763        C764   1.380       .  A
C764        C765   1.400       .  A
C764        O770   1.315       .  A
C765        C766   1.399       .  A
C765        H774   1.081       .  S
C766        C769   1.355       .  A
O767        C768   1.334       .  A
C768        C769   1.394       .  A
C769        H775   1.081       .  S
O770        C771   1.330       .  A
C771        C772   1.395       .  A
C772        H776   1.082       .  S
C777        C782   1.381       .  A
C777        C778   1.402       .  A
C777        O783   1.317       .  A
C778        C779   1.400       .  A
C778        H789   1.082       .  S
C779        C788   1.359       .  A
C779        C780   1.380       .  A
C780        C781   1.402       .  A
C780        O786   1.317       .  A
C781        C782   1.401       .  A
C781        H790   1.082       .  S
C782        C785   1.360       .  A
O783        C784   1.329       .  A
C784        C785   1.389       .  A
C785        H791   1.082       .  S
O786        C787   1.330       .  A
C787        C788   1.389       .  A
C788        H792   1.082       .  S
C793        C798   1.379       .  A
C793        C794   1.402       .  A
C793        O799   1.318       .  A
C794        C795   1.402       .  A
C794        H805   1.081       .  S
C795        C804   1.361       .  A
C795        C796   1.380       .  A
C796        C797   1.406       .  A
C796        O802   1.321       .  A
C797        C798   1.406       .  A
C797        H806   1.081       .  S
C798        C801   1.364       .  A
O799        C800   1.330       .  A
C800        C801   1.395       .  A
C801        H807   1.082       .  S
O802        C803   1.332       .  A
C803        C804   1.391       .  A
C804        H808   1.082       .  S
C809        C814   1.380       .  A
C809        C810   1.404       .  A
C809        O815   1.320       .  A
C810        C811   1.402       .  A
C810        H821   1.081       .  S
C811        C820   1.362       .  A
C811        C812   1.381       .  A
C812        C813   1.404       .  A
C812        O818   1.319       .  A
C813        C814   1.404       .  A
C813        H822   1.081       .  S
C814        C817   1.364       .  A
O815        C816   1.331       .  A
C816        C817   1.392       .  A
C817        H823   1.082       .  S
O818        C819   1.330       .  A
C819        C820   1.390       .  A
C820        H824   1.082       .  S
C825        C830   1.378       .  A
C825        C826   1.406       .  A
C825        O831   1.320       .  A
C826        C827   1.405       .  A
C826        H837   1.083       .  S
C827        C836   1.365       .  A
C827        C828   1.380       .  A
C828        C829   1.404       .  A
C828        O834   1.318       .  A
C829        C830   1.403       .  A
C829        H838   1.083       .  S
C830        C833   1.362       .  A
O831        C832   1.334       .  A
C832        C833   1.394       .  A
C833        H839   1.079       .  S
O834        C835   1.331       .  A
C835        C836   1.392       .  A
C836        H840   1.083       .  S
C841        C846   1.374       .  A
C841        C842   1.401       .  A
C841        O847   1.316       .  A
C842        C843   1.402       .  A
C842        H853   1.082       .  S
C843        C852   1.357       .  A
C843        C844   1.380       .  A
C844        C845   1.404       .  A
C844        O850   1.322       .  A
C845        C846   1.405       .  A
C845        H854   1.082       .  S
C846        C849   1.358       .  A
O847        C848   1.334       .  A
C848        C849   1.399       .  A
C849        H855   1.072       .  S
O850        C851   1.332       .  A
C851        C852   1.393       .  A
C852        H856   1.082       .  S
C857        C862   1.377       .  A
C857        C858   1.408       .  A
C857        O863   1.322       .  A
C858        C859   1.408       .  A
C858        H869   1.082       .  S
C859        C868   1.367       .  A
C859        C860   1.381       .  A
C860        C861   1.395       .  A
C860        O866   1.311       .  A
C861        C862   1.394       .  A
C861        H870   1.083       .  S
C862        C865   1.349       .  A
O863        C864   1.335       .  A
C864        C865   1.391       .  A
C865        H871   1.082       .  S
O866        C867   1.327       .  A
C867        C868   1.396       .  A
C868        H872   1.082       .  S
C873        C878   1.379       .  A
C873        C874   1.406       .  A
C873        O879   1.320       .  A
C874        C875   1.405       .  A
C874        H885   1.082       .  S
C875        C884   1.367       .  A
C875        C876   1.380       .  A
C876        C877   1.404       .  A
C876        O882   1.319       .  A
C877        C878   1.402       .  A
C877        H886   1.081       .  S
C878        C881   1.362       .  A
O879        C880   1.332       .  A
C880        C881   1.392       .  A
C881        H887   1.082       .  S
O882        C883   1.331       .  A
C883        C884   1.394       .  A
C884        H888   1.082       .  S
C889        C894   1.381       .  A
C889        C890   1.401       .  A
C889        O895   1.319       .  A
C890        C891   1.402       .  A
C890        H901   1.083       .  S
C891        C900   1.356       .  A
C891        C892   1.379       .  A
C892        C893   1.402       .  A
C892        O898   1.320       .  A
C893        C894   1.402       .  A
C893        H902   1.083       .  S
C894        C897   1.358       .  A
O895        C896   1.330       .  A
C896        C897   1.390       .  A
C897        H903   1.083       .  S
O898        C899   1.331       .  A
C899        C900   1.393       .  A
C900        H904   1.077       .  S
C905        C910   1.381       .  A
C905        C906   1.404       .  A
C905        O911   1.319       .  A
C906        C907   1.404       .  A
C906        H917   1.081       .  S
C907        C916   1.365       .  A
C907        C908   1.380       .  A
C908        C909   1.403       .  A
C908        O914   1.318       .  A
C909        C910   1.401       .  A
C909        H918   1.081       .  S
C910        C913   1.361       .  A
O911        C912   1.330       .  A
C912        C913   1.389       .  A
C913        H919   1.082       .  S
O914        C915   1.330       .  A
C915        C916   1.391       .  A
C916        H920   1.082       .  S
C921        C926   1.381       .  A
C921        C922   1.400       .  A
C921        O927   1.317       .  A
C922        C923   1.400       .  A
C922        H933   1.082       .  S
C923        C932   1.356       .  A
C923        C924   1.380       .  A
C924        C925   1.402       .  A
C924        O930   1.318       .  A
C925        C926   1.402       .  A
C925        H934   1.082       .  S
C926        C929   1.360       .  A
O927        C928   1.329       .  A
C928        C929   1.390       .  A
C929        H935   1.082       .  S
O930        C931   1.329       .  A
C931        C932   1.391       .  A
C932        H936   1.080       .  S
C937        C942   1.378       .  A
C937        C938   1.399       .  A
C937        O943   1.315       .  A
C938        C939   1.400       .  A
C938        H949   1.082       .  S
C939        C948   1.355       .  A
C939        C940   1.381       .  A
C940        C941   1.404       .  A
C940        O946   1.322       .  A
C941        C942   1.404       .  A
C941        H950   1.082       .  S
C942        C945   1.360       .  A
O943        C944   1.331       .  A
C944        C945   1.395       .  A
C945        H951   1.078       .  S
O946        C947   1.331       .  A
C947        C948   1.392       .  A
C948        H952   1.083       .  S
C953        C958   1.378       .  A
C953        C954   1.397       .  A
C953        O959   1.312       .  A
C954        C955   1.397       .  A
C954        H965   1.082       .  S
C955        C964   1.355       .  A
C955        C956   1.380       .  A
C956        C957   1.407       .  A
C956        O962   1.321       .  A
C957        C958   1.406       .  A
C957        H966   1.082       .  S
C958        C961   1.365       .  A
O959        C960   1.330       .  A
C960        C961   1.399       .  A
C961        H967   1.080       .  S
O962        C963   1.333       .  A
C963        C964   1.390       .  A
C964        H968   1.082       .  S
C969        C974   1.380       .  A
C969        C970   1.406       .  A
C969        O975   1.321       .  A
C970        C971   1.405       .  A
C970        H981   1.081       .  S
C971        C980   1.364       .  A
C971        C972   1.380       .  A
C972        C973   1.406       .  A
C972        O978   1.321       .  A
C973        C974   1.405       .  A
C973        H982   1.081       .  S
C974        C977   1.365       .  A
O975        C976   1.331       .  A
C976        C977   1.391       .  A
C977        H983   1.082       .  S
O978        C979   1.332       .  A
C979        C980   1.392       .  A
C980        H984   1.082       .  S
C985        C990   1.381       .  A
C985        C986   1.404       .  A
C985        O991   1.319       .  A
C986        C987   1.403       .  A
C986        H997   1.082       .  S
C987        C996   1.362       .  A
C987        C988   1.379       .  A
C988        C989   1.402       .  A
C988        O994   1.317       .  A
C989        C990   1.402       .  A
C989        H998   1.083       .  S
C990        C993   1.361       .  A
O991        C992   1.331       .  A
C992        C993   1.391       .  A
C993        H999   1.083       .  S
O994        C995   1.331       .  A
C995        C996   1.394       .  A
C996       H1000   1.080       .  S
C1001      C1006   1.379       .  A
C1001      C1002   1.402       .  A
C1001      O1007   1.318       .  A
C1002      C1003   1.402       .  A
C1002      H1013   1.083       .  S
C1003      C1012   1.361       .  A
C1003      C1004   1.380       .  A
C1004      C1005   1.406       .  A
C1004      O1010   1.321       .  A
C1005      C1006   1.405       .  A
C1005      H1014   1.083       .  S
C1006      C1009   1.362       .  A
O1007      C1008   1.332       .  A
C1008      C1009   1.396       .  A
C1009      H1015   1.081       .  S
O1010      C1011   1.332       .  A
C1011      C1012   1.391       .  A
C1012      H1016   1.082       .  S
C1017      C1022   1.380       .  A
C1017      C1018   1.407       .  A
C1017      O1023   1.324       .  A
C1018      C1019   1.407       .  A
C1018      H1029   1.081       .  S
C1019      C1028   1.366       .  A
C1019      C1020   1.380       .  A
C1020      C1021   1.405       .  A
C1020      O1026   1.321       .  A
C1021      C1022   1.404       .  A
C1021      H1030   1.081       .  S
C1022      C1025   1.363       .  A
O1023      C1024   1.332       .  A
C1024      C1025   1.390       .  A
C1025      H1031   1.082       .  S
O1026      C1027   1.332       .  A
C1027      C1028   1.393       .  A
C1028      H1032   1.082       .  S
C1033      C1038   1.380       .  A
C1033      C1034   1.406       .  A
C1033      O1039   1.321       .  A
C1034      C1035   1.405       .  A
C1034      H1045   1.081       .  S
C1035      C1044   1.363       .  A
C1035      C1036   1.376       .  A
C1036      C1037   1.397       .  A
C1036      O1042   1.311       .  A
C1037      C1038   1.397       .  A
C1037      H1046   1.081       .  S
C1038      C1041   1.353       .  A
O1039      C1040   1.332       .  A
C1040      C1041   1.389       .  A
C1041      H1047   1.082       .  S
O1042      C1043   1.330       .  A
C1043      C1044   1.398       .  A
C1044      H1048   1.075       .  S
C1049      C1054   1.381       .  A
C1049      C1050   1.400       .  A
C1049      O1055   1.316       .  A
C1050      C1051   1.399       .  A
C1050      H1061   1.082       .  S
C1051      C1060   1.355       .  A
C1051      C1052   1.378       .  A
C1052      C1053   1.402       .  A
C1052      O1058   1.317       .  A
C1053      C1054   1.402       .  A
C1053      H1062   1.082       .  S
C1054      C1057   1.361       .  A
O1055      C1056   1.330       .  A
C1056      C1057   1.393       .  A
C1057      H1063   1.082       .  S
O1058      C1059   1.329       .  A
C1059      C1060   1.392       .  A
C1060      H1064   1.082       .  S
C1065      C1070   1.381       .  A
C1065      C1066   1.397       .  A
C1065      O1071   1.312       .  A
C1066      C1067   1.395       .  A
C1066      H1077   1.082       .  S
C1067      C1076   1.351       .  A
C1067      C1068   1.378       .  A
C1068      C1069   1.403       .  A
C1068      O1074   1.318       .  A
C1069      C1070   1.403       .  A
C1069      H1078   1.082       .  S
C1070      C1073   1.362       .  A
O1071      C1072   1.328       .  A
C1072      C1073   1.392       .  A
C1073      H1079   1.082       .  S
O1074      C1075   1.331       .  A
C1075      C1076   1.392       .  A
C1076      H1080   1.082       .  S
C1081      C1086   1.379       .  A
C1081      C1082   1.403       .  A
C1081      O1087   1.318       .  A
C1082      C1083   1.403       .  A
C1082      H1093   1.081       .  S
C1083      C1092   1.362       .  A
C1083      C1084   1.380       .  A
C1084      C1085   1.406       .  A
C1084      O1090   1.321       .  A
C1085      C1086   1.405       .  A
C1085      H1094   1.082       .  S
C1086      C1089   1.363       .  A
O1087      C1088   1.330       .  A
C1088      C1089   1.394       .  A
C1089      H1095   1.082       .  S
O1090      C1091   1.332       .  A
C1091      C1092   1.391       .  A
C1092      H1096   1.082       .  S
C1097      C1102   1.379       .  A
C1097      C1098   1.401       .  A
C1097      O1103   1.317       .  A
C1098      C1099   1.401       .  A
C1098      H1109   1.081       .  S
C1099      C1108   1.361       .  A
C1099      C1100   1.380       .  A
C1100      C1101   1.404       .  A
C1100      O1106   1.319       .  A
C1101      C1102   1.403       .  A
C1101      H1110   1.081       .  S
C1102      C1105   1.360       .  A
O1103      C1104   1.328       .  A
C1104      C1105   1.393       .  A
C1105      H1111   1.082       .  S
O1106      C1107   1.331       .  A
C1107      C1108   1.390       .  A
C1108      H1112   1.082       .  S
C1113      C1118   1.380       .  A
C1113      C1114   1.405       .  A
C1113      O1119   1.320       .  A
C1114      C1115   1.404       .  A
C1114      H1125   1.081       .  S
C1115      C1124   1.363       .  A
C1115      C1116   1.379       .  A
C1116      C1117   1.404       .  A
C1116      O1122   1.318       .  A
C1117      C1118   1.403       .  A
C1117      H1126   1.081       .  S
C1118      C1121   1.363       .  A
O1119      C1120   1.331       .  A
C1120      C1121   1.391       .  A
C1121      H1127   1.082       .  S
O1122      C1123   1.331       .  A
C1123      C1124   1.393       .  A
C1124      H1128   1.082       .  S
C1129      C1134   1.380       .  A
C1129      C1130   1.405       .  A
C1129      O1135   1.319       .  A
C1130      C1131   1.403       .  A
C1130      H1141   1.081       .  S
C1131      C1140   1.363       .  A
C1131      C1132   1.379       .  A
C1132      C1133   1.402       .  A
C1132      O1138   1.316       .  A
C1133      C1134   1.402       .  A
C1133      H1142   1.081       .  S
C1134      C1137   1.362       .  A
O1135      C1136   1.332       .  A
C1136      C1137   1.391       .  A
C1137      H1143   1.082       .  S
O1138      C1139   1.330       .  A
C1139      C1140   1.393       .  A
C1140      H1144   1.082       .  S
C1145      C1150   1.380       .  A
C1145      C1146   1.404       .  A
C1145      O1151   1.320       .  A
C1146      C1147   1.403       .  A
C1146      H1157   1.082       .  S
C1147      C1156   1.360       .  A
C1147      C1148   1.378       .  A
C1148      C1149   1.398       .  A
C1148      O1154   1.313       .  A
C1149      C1150   1.398       .  A
C1149      H1158   1.082       .  S
C1150      C1153   1.353       .  A
O1151      C1152   1.331       .  A
C1152      C1153   1.391       .  A
C1153      H1159   1.082       .  S
O1154      C1155   1.331       .  A
C1155      C1156   1.395       .  A
C1156      H1160   1.080       .  S
C1161      C1166   1.381       .  A
C1161      C1162   1.399       .  A
C1161      O1167   1.315       .  A
C1162      C1163   1.399       .  A
C1162      H1173   1.084       .  S
C1163      C1172   1.354       .  A
C1163      C1164   1.379       .  A
C1164      C1165   1.404       .  A
C1164      O1170   1.321       .  A
C1165      C1166   1.404       .  A
C1165      H1174   1.082       .  S
C1166      C1169   1.362       .  A
O1167      C1168   1.330       .  A
C1168      C1169   1.391       .  A
C1169      H1175   1.082       .  S
O1170      C1171   1.333       .  A
C1171      C1172   1.393       .  A
C1172      H1176   1.083       .  S
C1177      C1182   1.379       .  A
C1177      C1178   1.397       .  A
C1177      O1183   1.312       .  A
C1178      C1179   1.397       .  A
C1178      H1189   1.082       .  S
C1179      C1188   1.355       .  A
C1179      C1180   1.380       .  A
C1180      C1181   1.407       .  A
C1180      O1186   1.321       .  A
C1181      C1182   1.406       .  A
C1181      H1190   1.083       .  S
C1182      C1185   1.364       .  A
O1183      C1184   1.329       .  A
C1184      C1185   1.396       .  A
C1185      H1191   1.079       .  S
O1186      C1187   1.332       .  A
C1187      C1188   1.389       .  A
C1188      H1192   1.082       .  S
C1193      C1198   1.380       .  A
C1193      C1194   1.404       .  A
C1193      O1199   1.321       .  A
C1194      C1195   1.404       .  A
C1194      H1205   1.083       .  S
C1195      C1204   1.362       .  A
C1195      C1196   1.380       .  A
C1196      C1197   1.408       .  A
C1196      O1202   1.324       .  A
C1197      C1198   1.407       .  A
C1197      H1206   1.082       .  S
C1198      C1201   1.366       .  A
O1199      C1200   1.331       .  A
C1200      C1201   1.393       .  A
C1201      H1207   1.081       .  S
O1202      C1203   1.333       .  A
C1203      C1204   1.390       .  A
C1204      H1208   1.083       .  S
C1209      C1214   1.380       .  A
C1209      C1210   1.407       .  A
C1209      O1215   1.322       .  A
C1210      C1211   1.406       .  A
C1210      H1221   1.081       .  S
C1211      C1220   1.364       .  A
C1211      C1212   1.378       .  A
C1212      C1213   1.404       .  A
C1212      O1218   1.320       .  A
C1213      C1214   1.404       .  A
C1213      H1222   1.081       .  S
C1214      C1217   1.363       .  A
O1215      C1216   1.333       .  A
C1216      C1217   1.391       .  A
C1217      H1223   1.082       .  S
O1218      C1219   1.332       .  A
C1219      C1220   1.396       .  A
C1220      H1224   1.081       .  S
C1225      C1230   1.380       .  A
C1225      C1226   1.404       .  A
C1225      O1231   1.319       .  A
C1226      C1227   1.403       .  A
C1226      H1237   1.082       .  S
C1227      C1236   1.363       .  A
C1227      C1228   1.380       .  A
C1228      C1229   1.405       .  A
C1228      O1234   1.320       .  A
C1229      C1230   1.404       .  A
C1229      H1238   1.082       .  S
C1230      C1233   1.365       .  A
O1231      C1232   1.331       .  A
C1232      C1233   1.392       .  A
C1233      H1239   1.081       .  S
O1234      C1235   1.331       .  A
C1235      C1236   1.391       .  A
C1236      H1240   1.082       .  S
C1241      C1246   1.380       .  A
C1241      C1242   1.405       .  A
C1241      O1247   1.322       .  A
C1242      C1243   1.405       .  A
C1242      H1253   1.081       .  S
C1243      C1252   1.363       .  A
C1243      C1244   1.378       .  A
C1244      C1245   1.406       .  A
C1244      O1250   1.321       .  A
C1245      C1246   1.406       .  A
C1245      H1254   1.081       .  S
C1246      C1249   1.363       .  A
O1247      C1248   1.332       .  A
C1248      C1249   1.393       .  A
C1249      H1255   1.082       .  S
O1250      C1251   1.331       .  A
C1251      C1252   1.393       .  A
C1252      H1256   1.082       .  S
C1257      C1262   1.378       .  A
C1257      C1258   1.405       .  A
C1257      O1263   1.316       .  A
C1258      C1259   1.403       .  A
C1258      H1269   1.082       .  S
C1259      C1268   1.366       .  A
C1259      C1260   1.380       .  A
C1260      C1261   1.397       .  A
C1260      O1266   1.309       .  A
C1261      C1262   1.394       .  A
C1261      H1270   1.082       .  S
C1262      C1265   1.354       .  A
O1263      C1264   1.332       .  A
C1264      C1265   1.392       .  A
C1265      H1271   1.082       .  S
O1266      C1267   1.328       .  A
C1267      C1268   1.393       .  A
C1268      H1272   1.082       .  S
C1273      C1278   1.379       .  A
C1273      C1274   1.404       .  A
C1273      O1279   1.319       .  A
C1274      C1275   1.403       .  A
C1274      H1285   1.082       .  S
C1275      C1284   1.362       .  A
C1275      C1276   1.380       .  A
C1276      C1277   1.406       .  A
C1276      O1282   1.321       .  A
C1277      C1278   1.405       .  A
C1277      H1286   1.082       .  S
C1278      C1281   1.364       .  A
O1279      C1280   1.331       .  A
C1280      C1281   1.393       .  A
C1281      H1287   1.081       .  S
O1282      C1283   1.332       .  A
C1283      C1284   1.390       .  A
C1284      H1288   1.082       .  S
C1289      C1294   1.380       .  A
C1289      C1290   1.404       .  A
C1289      O1295   1.321       .  A
C1290      C1291   1.404       .  A
C1290      H1301   1.082       .  S
C1291      C1300   1.360       .  A
C1291      C1292   1.378       .  A
C1292      C1293   1.403       .  A
C1292      O1298   1.320       .  A
C1293      C1294   1.403       .  A
C1293      H1302   1.082       .  S
C1294      C1297   1.361       .  A
O1295      C1296   1.331       .  A
C1296      C1297   1.392       .  A
C1297      H1303   1.082       .  S
O1298      C1299   1.331       .  A
C1299      C1300   1.396       .  A
C1300      H1304   1.082       .  S
C1305      C1310   1.378       .  A
C1305      C1306   1.407       .  A
C1305      O1311   1.322       .  A
C1306      C1307   1.407       .  A
C1306      H1317   1.083       .  S
C1307      C1316   1.366       .  A
C1307      C1308   1.380       .  A
C1308      C1309   1.405       .  A
C1308      O1314   1.322       .  A
C1309      C1310   1.405       .  A
C1309      H1318   1.083       .  S
C1310      C1313   1.361       .  A
O1311      C1312   1.334       .  A
C1312      C1313   1.395       .  A
C1313      H1319   1.078       .  S
O1314      C1315   1.333       .  A
C1315      C1316   1.394       .  A
C1316      H1320   1.083       .  S
C1321      C1326   1.379       .  A
C1321      C1322   1.407       .  A
C1321      O1327   1.322       .  A
C1322      C1323   1.406       .  A
C1322      H1333   1.082       .  S
C1323      C1332   1.366       .  A
C1323      C1324   1.379       .  A
C1324      C1325   1.408       .  A
C1324      O1330   1.324       .  A
C1325      C1326   1.407       .  A
C1325      H1334   1.081       .  S
C1326      C1329   1.366       .  A
O1327      C1328   1.333       .  A
C1328      C1329   1.394       .  A
C1329      H1335   1.082       .  S
O1330      C1331   1.334       .  A
C1331      C1332   1.393       .  A
C1332      H1336   1.082       .  S
C1337      C1342   1.380       .  A
C1337      C1338   1.399       .  A
C1337      O1343   1.313       .  A
C1338      C1339   1.397       .  A
C1338      H1349   1.081       .  S
C1339      C1348   1.356       .  A
C1339      C1340   1.377       .  A
C1340      C1341   1.406       .  A
C1340      O1346   1.318       .  A
C1341      C1342   1.405       .  A
C1341      H1350   1.081       .  S
C1342      C1345   1.365       .  A
O1343      C1344   1.328       .  A
C1344      C1345   1.394       .  A
C1345      H1351   1.082       .  S
O1346      C1347   1.332       .  A
C1347      C1348   1.393       .  A
C1348      H1352   1.081       .  S
C1353      C1358   1.381       .  A
C1353      C1354   1.397       .  A
C1353      O1359   1.313       .  A
C1354      C1355   1.396       .  A
C1354      H1365   1.083       .  S
C1355      C1364   1.352       .  A
C1355      C1356   1.378       .  A
C1356      C1357   1.408       .  A
C1356      O1362   1.321       .  A
C1357      C1358   1.407       .  A
C1357      H1366   1.083       .  S
C1358      C1361   1.367       .  A
O1359      C1360   1.328       .  A
C1360      C1361   1.394       .  A
C1361      H1367   1.082       .  S
O1362      C1363   1.334       .  A
C1363      C1364   1.391       .  A
C1364      H1368   1.082       .  S
C1369      C1374   1.377       .  A
C1369      C1370   1.403       .  A
C1369      O1375   1.317       .  A
C1370      C1371   1.402       .  A
C1370      H1381   1.082       .  S
C1371      C1380   1.363       .  A
C1371      C1372   1.380       .  A
C1372      C1373   1.400       .  A
C1372      O1378   1.314       .  A
C1373      C1374   1.398       .  A
C1373      H1382   1.082       .  S
C1374      C1377   1.356       .  A
O1375      C1376   1.331       .  A
C1376      C1377   1.395       .  A
C1377      H1383   1.081       .  S
O1378      C1379   1.330       .  A
C1379      C1380   1.392       .  A
C1380      H1384   1.082       .  S
C1385      C1390   1.380       .  A
C1385      C1386   1.406       .  A
C1385      O1391   1.321       .  A
C1386      C1387   1.406       .  A
C1386      H1397   1.082       .  S
C1387      C1396   1.364       .  A
C1387      C1388   1.381       .  A
C1388      C1389   1.396       .  A
C1388      O1394   1.314       .  A
C1389      C1390   1.395       .  A
C1389      H1398   1.082       .  S
C1390      C1393   1.351       .  A
O1391      C1392   1.332       .  A
C1392      C1393   1.388       .  A
C1393      H1399   1.082       .  S
O1394      C1395   1.327       .  A
C1395      C1396   1.393       .  A
C1396      H1400   1.082       .  S
C1401      C1406   1.379       .  A
C1401      C1402   1.403       .  A
C1401      O1407   1.317       .  A
C1402      C1403   1.402       .  A
C1402      H1413   1.081       .  S
C1403      C1412   1.362       .  A
C1403      C1404   1.380       .  A
C1404      C1405   1.403       .  A
C1404      O1410   1.318       .  A
C1405      C1406   1.402       .  A
C1405      H1414   1.081       .  S
C1406      C1409   1.360       .  A
O1407      C1408   1.330       .  A
C1408      C1409   1.393       .  A
C1409      H1415   1.082       .  S
O1410      C1411   1.331       .  A
C1411      C1412   1.391       .  A
C1412      H1416   1.082       .  S
C1417      C1422   1.380       .  A
C1417      C1418   1.404       .  A
C1417      O1423   1.319       .  A
C1418      C1419   1.403       .  A
C1418      H1429   1.081       .  S
C1419      C1428   1.362       .  A
C1419      C1420   1.379       .  A
C1420      C1421   1.404       .  A
C1420      O1426   1.318       .  A
C1421      C1422   1.403       .  A
C1421      H1430   1.081       .  S
C1422      C1425   1.363       .  A
O1423      C1424   1.331       .  A
C1424      C1425   1.391       .  A
C1425      H1431   1.082       .  S
O1426      C1427   1.330       .  A
C1427      C1428   1.393       .  A
C1428      H1432   1.082       .  S
C1433      C1438   1.380       .  A
C1433      C1434   1.407       .  A
C1433      O1439   1.321       .  A
C1434      C1435   1.405       .  A
C1434      H1445   1.081       .  S
C1435      C1444   1.364       .  A
C1435      C1436   1.380       .  A
C1436      C1437   1.402       .  A
C1436      O1442   1.317       .  A
C1437      C1438   1.402       .  A
C1437      H1446   1.081       .  S
C1438      C1441   1.361       .  A
O1439      C1440   1.333       .  A
C1440      C1441   1.391       .  A
C1441      H1447   1.082       .  S
O1442      C1443   1.329       .  A
C1443      C1444   1.393       .  A
C1444      H1448   1.082       .  S
C1449      C1454   1.378       .  A
C1449      C1450   1.403       .  A
C1449      O1455   1.318       .  A
C1450      C1451   1.402       .  A
C1450      H1461   1.082       .  S
C1451      C1460   1.361       .  A
C1451      C1452   1.380       .  A
C1452      C1453   1.408       .  A
C1452      O1458   1.323       .  A
C1453      C1454   1.407       .  A
C1453      H1462   1.082       .  S
C1454      C1457   1.365       .  A
O1455      C1456   1.330       .  A
C1456      C1457   1.397       .  A
C1457      H1463   1.082       .  S
O1458      C1459   1.334       .  A
C1459      C1460   1.391       .  A
C1460      H1464   1.082       .  S
