geometry optimzed in LAMMPS
_audit_creation_date              2020-11-30 
_audit_creation_method            'lammps2cif' 
_symmetry_space_group_name_H-M    'P1' 
_symmetry_Int_Tables_number       1 
_symmetry_cell_setting            triclinic 
loop_ 
_symmetry_equiv_pos_as_xyz 
  x,y,z 
_cell_length_a                    49.94287160944907 
_cell_length_b                    50.07725173389108 
_cell_length_c                    40.556886232825356 
_cell_angle_alpha                 93.06685936306955 
_cell_angle_beta                  89.78984315731921 
_cell_angle_gamma                 120.57031775464364 
loop_ 
_atom_site_label 
_atom_site_type_symbol 
_atom_site_fract_x 
_atom_site_fract_y 
_atom_site_fract_z 
_atom_site_charge 
O1          O  0.43762271  0.40691992  0.38974263    -0.80380
O2          O  0.45217505  0.35914469  0.43702111    -0.80400
O3          O  0.37082468  0.33454222  0.41325121    -0.80410
O4          O  0.50221585  0.37163954  0.35939715    -0.80350
O5          O  0.39142343  0.32210656  0.45488553    -0.80470
O6          O  0.48505103  0.39598140  0.38846749    -0.80390
O7          O  0.47536392  0.33647591  0.41218664    -0.80380
O8          O  0.39055366  0.38078157  0.36912424    -0.80420
C9          C  0.41290751  0.40615753  0.38129882     1.09310
C10         C  0.47228438  0.35080494  0.43759637     1.09200
C11         C  0.37242539  0.33007308  0.44457012     1.09330
C12         C  0.50780505  0.39634158  0.37546902     1.09210
O13         O  0.47193851  0.37712931  0.31585902    -0.80380
O14         O  0.37327275  0.28733412  0.40160887    -0.80460
O15         O  0.38899734  0.34148079  0.31447199    -0.80390
O16         O  0.42546821  0.28915072  0.36831143    -0.80370
O17         O  0.42293701  0.29291655  0.42132079    -0.80420
O18         O  0.42634145  0.38973343  0.32097776    -0.80390
O19         O  0.45150879  0.32637043  0.31669498    -0.80350
O20         O  0.36652663  0.29265469  0.35127716    -0.80420
Co21       Co  0.45400520  0.38963896  0.35574865     1.51530
Co22       Co  0.41283393  0.32733641  0.41546600     1.51690
Co23       Co  0.38288443  0.33711251  0.36255143     1.51570
Co24       Co  0.46080813  0.33091518  0.36399894     1.51470
O25         O  0.42821959  0.34504191  0.37079212    -1.42310
C26         C  0.46493969  0.35088768  0.30125559     1.09240
C27         C  0.35904093  0.27547409  0.37473401     1.09330
C28         C  0.40318333  0.36868285  0.30458010     1.09270
C29         C  0.42519698  0.27839590  0.39570700     1.09240
O30         O  0.43579363  0.13768714  0.30241176    -0.80380
O31         O  0.43799041  0.04866272  0.38267477    -0.80400
O32         O  0.99145210  0.10916727  0.37428546    -0.80410
O33         O  0.37528560  0.05096609  0.33593519    -0.80350
O34         O  0.47957772  0.09168928  0.42344664    -0.80470
O35         O  0.42216338  0.07987961  0.31707007    -0.80390
O36         O  0.38869726  0.02274319  0.38206137    -0.80380
O37         O  0.47696411  0.14248414  0.32971713    -0.80420
C38         C  0.46409587  0.14484227  0.30299302     1.09310
C39         C  0.41370584  0.02299022  0.37802741     1.09200
C40         C  0.99766933  0.09935024  0.39963872     1.09330
C41         C  0.39521769  0.05624459  0.31379226     1.09210
O42         O  0.38006667  0.10213759  0.33661123    -0.80380
O43         O  0.43897428  0.10954454  0.44965457    -0.80460
O44         O  0.46777568  0.17297996  0.38962503    -0.80390
O45         O  0.38361577  0.05803449  0.43638750    -0.80370
O46         O  0.42206516  0.04904649  0.44816430    -0.80420
O47         O  0.42361838  0.15202443  0.36322786    -0.80390
O48         O  0.36839679  0.08963018  0.38808601    -0.80350
O49         O  0.48373054  0.14363308  0.42975528    -0.80420
Co50       Co  0.42530983  0.11649029  0.34177648     1.51530
Co51       Co  0.43564767  0.07827112  0.41535471     1.51690
Co52       Co  0.47558054  0.13825708  0.38081055     1.51570
Co53       Co  0.38315541  0.05980517  0.38545381     1.51470
O54         O  0.42879784  0.10058788  0.38289520    -1.42310
C55         C  0.36285150  0.09790783  0.36124319     1.09240
C56         C  0.46596830  0.13300382  0.45399311     1.09330
C57         C  0.44447582  0.17410664  0.38068329     1.09270
C58         C  0.39556471  0.04570010  0.45436780     1.09240
O59         O  0.02101337  0.38893577  0.12200201    -0.80380
O60         O  0.15061698  0.47316966  0.07841131    -0.80400
O61         O  0.09679938  0.47918812  0.16754526    -0.80410
O62         O  0.05426719  0.39785557  0.06171956    -0.80350
O63         O  0.12355961  0.49339598  0.12280220    -0.80470
O64         O  0.03636655  0.35545551  0.08665046    -0.80390
O65         O  0.10542620  0.44969765  0.05448056    -0.80380
O66         O  0.04125510  0.43704517  0.13937296    -0.80420
C67         C  0.01860620  0.41265470  0.12653958     1.09310
C68         C  0.13263047  0.47221994  0.05625246     1.09200
C69         C  0.11031870  0.49891820  0.14648932     1.09330
C70         C  0.03531421  0.36945583  0.06184623     1.09210
O71         O  0.08695433  0.36833615  0.13572588    -0.80380
O72         O  0.14279036  0.46886746  0.17274132    -0.80460
O73         O  0.04148489  0.39091717  0.17963851    -0.80390
O74         O  0.14261454  0.42034724  0.07512876    -0.80370
O75         O  0.15276381  0.43402397  0.12745879    -0.80420
O76         O  0.02616145  0.34556968  0.15380592    -0.80390
O77         O  0.08982114  0.36790979  0.08185351    -0.80350
O78         O  0.10279872  0.43095293  0.19409463    -0.80420
Co79       Co  0.05621929  0.38108483  0.13045952     1.51530
Co80       Co  0.13720729  0.46244439  0.12491646     1.51690
Co81       Co  0.07303096  0.43345265  0.16405343     1.51570
Co82       Co  0.09722923  0.41022116  0.07162554     1.51470
O83         O  0.09122381  0.42437161  0.11908363    -1.42310
C84         C  0.09144226  0.35732202  0.10908819     1.09240
C85         C  0.12903668  0.45509067  0.19776146     1.09330
C86         C  0.02472056  0.36125387  0.17859529     1.09270
C87         C  0.15871549  0.42398592  0.10113260     1.09240
O88         O  0.18514808  0.15221580  0.35003321    -0.80380
O89         O  0.14529248  0.02062720  0.38999715    -0.80400
O90         O  0.16359954  0.05604330  0.31450048    -0.80410
O91         O  0.11270138  0.07965966  0.42538758    -0.80350
O92         O  0.18631980  0.03554515  0.34110056    -0.80470
O93         O  0.13474144  0.11406381  0.38766496    -0.80390
O94         O  0.11870807  0.04310267  0.37643443    -0.80380
O95         O  0.16340113  0.10982667  0.31871654    -0.80420
C96         C  0.17210413  0.13817545  0.32259539     1.09310
C97         C  0.11999023  0.01867465  0.38061985     1.09200
C98         C  0.17076150  0.03543949  0.31627508     1.09330
C99         C  0.11207096  0.09916554  0.40759019     1.09210
O100        O  0.18563610  0.16234504  0.41866397    -0.80380
O101        O  0.23416402  0.08537994  0.38396016    -0.80460
O102        O  0.22979401  0.14302945  0.33838563    -0.80390
O103        O  0.14588116  0.05472422  0.43907871    -0.80370
O104        O  0.19411516  0.06746962  0.43517856    -0.80420
O105        O  0.22840140  0.14831329  0.39263303    -0.80390
O106        O  0.17284445  0.11772427  0.43992173    -0.80350
O107        O  0.22983717  0.08950708  0.33066214    -0.80420
Co108      Co  0.18285652  0.12903186  0.39079780     1.51530
Co109      Co  0.18997502  0.05501268  0.38736664     1.51690
Co110      Co  0.19506791  0.09873861  0.32788223     1.51570
Co111      Co  0.14660723  0.08138300  0.40432163     1.51470
O112        O  0.18105647  0.08901101  0.37472442    -1.42310
C113        C  0.17757675  0.14573027  0.44349064     1.09240
C114        C  0.24563460  0.09065697  0.35570347     1.09330
C115        C  0.24284805  0.15726431  0.36593897     1.09270
C116        C  0.16934113  0.05526716  0.45102671     1.09240
O117        O  0.03889888  0.12214237  0.16775555    -0.80380
O118        O  0.13525980  0.20362244  0.07193070    -0.80400
O119        O  0.03190822  0.17900803  0.09759715    -0.80410
O120        O  0.10037745  0.11836509  0.12828619    -0.80350
O121        O  0.07084410  0.17866177  0.07238449    -0.80470
O122        O  0.09187765  0.11912288  0.18088530    -0.80390
O123        O  0.11731507  0.15582075  0.08089160    -0.80380
O124        O  0.03967785  0.13147167  0.11493167    -0.80420
C125        C  0.02684140  0.11431047  0.13854104     1.09310
C126        C  0.13110937  0.17735902  0.06203367     1.09200
C127        C  0.04322217  0.17498173  0.07125854     1.09330
C128        C  0.09627638  0.10625115  0.15533179     1.09210
O129        O  0.12443675  0.18339367  0.20386753    -0.80380
O130        O  0.11030737  0.24053777  0.08814198    -0.80460
O131        O  0.03452022  0.17120551  0.16192765    -0.80390
O132        O  0.16609974  0.20648558  0.12444221    -0.80370
O133        O  0.14306600  0.23329371  0.13674838    -0.80420
O134        O  0.07301343  0.18693296  0.19588348    -0.80390
O135        O  0.14826447  0.16466399  0.17368680    -0.80350
O136        O  0.08211018  0.22445397  0.13276201    -0.80420
Co137      Co  0.08283237  0.15437315  0.18471652     1.51530
Co138      Co  0.10700180  0.20537326  0.10755716     1.51690
Co139      Co  0.06226551  0.17672484  0.12355891     1.51570
Co140      Co  0.13117380  0.16198403  0.12707120     1.51470
O141        O  0.09804905  0.17219308  0.13970909    -1.42310
C142        C  0.14486592  0.17575191  0.20143307     1.09240
C143        C  0.09617458  0.24537130  0.11156993     1.09330
C144        C  0.04505658  0.17857362  0.19116841     1.09270
C145        C  0.16749281  0.23198810  0.13326141     1.09240
O146        O  0.39908023  0.42852553  0.10480442    -0.80380
O147        O  0.34790709  0.44272183  0.06004732    -0.80400
O148        O  0.33874148  0.37768254  0.07688856    -0.80410
O149        O  0.37904735  0.50438718  0.13467673    -0.80350
O150        O  0.30409182  0.38139515  0.04699707    -0.80470
O151        O  0.40106652  0.48285369  0.10768985    -0.80390
O152        O  0.33326849  0.47300231  0.08645241    -0.80380
O153        O  0.37450869  0.38482483  0.12784452    -0.80420
C154        C  0.39893589  0.40495744  0.11427019     1.09310
C155        C  0.34491039  0.46644386  0.06147736     1.09200
C156        C  0.32278728  0.37156133  0.04981900     1.09330
C157        C  0.40267849  0.50709268  0.11973770     1.09210
O158        O  0.38890881  0.47792569  0.17973471    -0.80380
O159        O  0.28746860  0.36894458  0.11121512    -0.80460
O160        O  0.33531965  0.39031496  0.17580270    -0.80390
O161        O  0.29074607  0.43279402  0.13538371    -0.80370
O162        O  0.28649249  0.41716072  0.08366806    -0.80420
O163        O  0.38595891  0.42315822  0.17450395    -0.80390
O164        O  0.33868405  0.46199425  0.18200335    -0.80350
O165        O  0.30987896  0.34296434  0.12771864    -0.80420
Co166      Co  0.39190847  0.45234424  0.14011004     1.51530
Co167      Co  0.32076924  0.40734893  0.08642697     1.51690
Co168      Co  0.33471090  0.38656562  0.12692507     1.51570
Co169      Co  0.33536952  0.46537070  0.13435345     1.51470
O170        O  0.34726561  0.43189427  0.12597304    -1.42310
C171        C  0.36554668  0.47557576  0.19548621     1.09240
C172        C  0.28547734  0.34380686  0.12110215     1.09330
C173        C  0.36237911  0.40256015  0.18895345     1.09270
C174        C  0.27442907  0.42215437  0.10900503     1.09240
C175        C  0.46019125  0.03302343  0.11536040    -0.12510
C176        C  0.43398807  0.03603805  0.12188415     0.04500
C177        C  0.43908276  0.06569309  0.13209111    -0.07800
C178        C  0.46967725  0.09073272  0.13744420    -0.08540
C179        C  0.49549791  0.08702654  0.13241689    -0.03090
C180        C  0.49076789  0.05814010  0.11993554     0.03730
N181        N  0.01641669  0.05377088  0.11171471     0.66230
H182        H  0.45696434  0.01071784  0.10669852     0.15130
H183        H  0.47332922  0.11332404  0.14569933     0.14840
N184        N  0.41377797  0.07112847  0.13630748     0.73940
O185        O  0.01326657  0.02718251  0.11237033    -0.39510
O186        O  0.04063001  0.07514389  0.09946292    -0.39460
O187        O  0.39818368  0.06312417  0.16216755    -0.40160
O188        O  0.41169296  0.08986688  0.11838700    -0.40230
C189        C  0.20794704  0.27168433  0.10115694    -0.12510
C190        C  0.19745027  0.26121696  0.13259470     0.04500
C191        C  0.21514652  0.27921555  0.16112256    -0.07800
C192        C  0.24429249  0.30614554  0.15666420    -0.08540
C193        C  0.25464653  0.31625043  0.12502041    -0.03090
C194        C  0.23573598  0.29941720  0.09717051     0.03730
N195        N  0.24422984  0.31033125  0.06470837     0.66230
H196        H  0.19389426  0.25855452  0.07940723     0.15130
H197        H  0.25882557  0.31980796  0.17790214     0.14840
N198        N  0.20434876  0.27098224  0.19423236     0.73940
O199        O  0.24488874  0.29258693  0.04183073    -0.39510
O200        O  0.24388159  0.33432504  0.05737983    -0.39460
O201        O  0.17673758  0.25010216  0.19929660    -0.40160
O202        O  0.22181798  0.28632411  0.21890532    -0.40230
C203        C  0.15051304  0.18136108  0.26303362    -0.12510
C204        C  0.16006635  0.17432565  0.23268472     0.04500
C205        C  0.17860998  0.16039991  0.23351238    -0.07800
C206        C  0.18279364  0.14974118  0.26349344    -0.08540
C207        C  0.17089386  0.15451015  0.29335173    -0.03090
C208        C  0.15594352  0.17199002  0.29319789     0.03730
N209        N  0.14413126  0.17862906  0.32276066     0.66230
H210        H  0.13733894  0.19311724  0.26325606     0.15130
H211        H  0.19554007  0.13753403  0.26357904     0.14840
N212        N  0.19340489  0.15703366  0.20444112     0.73940
O213        O  0.16152655  0.19037567  0.34825562    -0.39510
O214        O  0.11882183  0.17852192  0.32148034    -0.39460
O215        O  0.20745073  0.17952872  0.18612649    -0.40160
O216        O  0.19692026  0.13386884  0.19999165    -0.40230
C217        C  0.16940739  0.19421750  0.01554329    -0.12510
C218        C  0.14289994  0.17077525  0.03051108     0.04500
C219        C  0.12973054  0.13977415  0.01712966    -0.07800
C220        C  0.14325208  0.13289579  0.49050625    -0.08540
C221        C  0.16931744  0.15591281  0.47517055    -0.03090
C222        C  0.18298215  0.18717792  0.48805345     0.03730
N223        N  0.21127802  0.21150257  0.47499835     0.66230
H224        H  0.18031129  0.21784150  0.02614673     0.15130
H225        H  0.13226453  0.10891737  0.48111144     0.14840
N226        N  0.10175577  0.11465620  0.02929159     0.73940
O227        O  0.21816043  0.23948158  0.47904204    -0.39510
O228        O  0.23133044  0.20566900  0.46324444    -0.39460
O229        O  0.07793918  0.10100171  0.01039127    -0.40160
O230        O  0.10355664  0.10057684  0.05331310    -0.40230
C231        C  0.14575215  0.03916087  0.00519355    -0.12510
C232        C  0.16556341  0.03831280  0.48104070     0.04500
C233        C  0.17497342  0.51611062  0.48248793    -0.07800
C234        C  0.16449755  0.49559005  0.50804434    -0.08540
C235        C  0.14384356  0.49575850  0.03142829    -0.03090
C236        C  0.13401864  0.01772998  0.02995800     0.03730
N237        N  0.11183671  0.01841354  0.05241659     0.66230
H238        H  0.13772935  0.05549533  0.00335329     0.15130
H239        H  0.17154492  0.47841888  0.50884973     0.14840
N240        N  0.19230929  0.51181970  0.45657760     0.73940
O241        O  0.11039943  0.04280250  0.05682564    -0.39510
O242        O  0.09089849  0.99388084  0.06434057    -0.39460
O243        O  0.21923945  0.03356461  0.45050562    -0.40160
O244        O  0.18277462  0.48499364  0.44331553    -0.40230
C245        C  0.14823556  0.98170725  0.28971174    -0.12510
C246        C  0.16402042  0.01407760  0.28700676     0.04500
C247        C  0.16994912  0.02606049  0.25543908    -0.07800
C248        C  0.15909931  0.00566953  0.22773039    -0.08540
C249        C  0.14139226  0.47319602  0.22985765    -0.03090
C250        C  0.13561118  0.46101657  0.26146467     0.03730
N251        N  0.11660604  0.42833766  0.26561875     0.66230
H252        H  0.14409914  0.47253704  0.31379800     0.15130
H253        H  0.16388656  0.01588679  0.20397989     0.14840
N254        N  0.18649815  0.05891988  0.25079503     0.73940
O255        O  0.12536294  0.41565987  0.28562385    -0.39510
O256        O  0.08861283  0.41394460  0.25540906    -0.39460
O257        O  0.21198078  0.07670329  0.26604464    -0.40160
O258        O  0.17814124  0.06946215  0.22789632    -0.40230
C259        C  0.12558836  0.08070348  0.13785764    -0.12510
C260        C  0.10150884  0.07993078  0.15682364     0.04500
C261        C  0.08290516  0.05396870  0.17501104    -0.07800
C262        C  0.08677399  0.02821875  0.17134915    -0.08540
C263        C  0.10977619  0.02819360  0.15096958    -0.03090
C264        C  0.13074324  0.05562869  0.13569314     0.03730
N265        N  0.15800196  0.05910981  0.11960752     0.66230
H266        H  0.14106705  0.10146595  0.12528234     0.15130
H267        H  0.07130028  0.00787474  0.18449044     0.14840
N268        N  0.05946586  0.05289104  0.19635735     0.73940
O269        O  0.16906419  0.07658201  0.09584271    -0.39510
O270        O  0.17426205  0.04967103  0.13290220    -0.39460
O271        O  0.03230808  0.02949704  0.19448693    -0.40160
O272        O  0.06728593  0.07201826  0.22105069    -0.40230
C273        C  0.11501321  0.32820182  0.13079613    -0.12510
C274        C  0.09375281  0.32921895  0.10912179     0.04500
C275        C  0.07285385  0.30228333  0.08964168    -0.07800
C276        C  0.07359087  0.27501076  0.09218246    -0.08540
C277        C  0.09494643  0.27398587  0.11346156    -0.03090
C278        C  0.11602957  0.30078947  0.13309543     0.03730
N279        N  0.13855389  0.30071726  0.15502453     0.66230
H280        H  0.13072440  0.34878941  0.14607296     0.15130
H281        H  0.05761230  0.25449021  0.07696033     0.14840
N282        N  0.04995602  0.30182406  0.06806264     0.73940
O283        O  0.16474222  0.32504297  0.16035487    -0.39510
O284        O  0.13130116  0.27753628  0.17173140    -0.39460
O285        O  0.05821420  0.31543809  0.04141567    -0.40160
O286        O  0.02149280  0.28277050  0.07210088    -0.40230
C287        C  0.20043378  0.42224533  0.13261365    -0.12510
C288        C  0.18615460  0.41931946  0.10164761     0.04500
C289        C  0.19942971  0.41349502  0.07321551    -0.07800
C290        C  0.22712616  0.41257089  0.07641702    -0.08540
C291        C  0.24236512  0.41763836  0.10732863    -0.03090
C292        C  0.22785847  0.42131495  0.13583665     0.03730
N293        N  0.24057000  0.42433658  0.16841852     0.66230
H294        H  0.19032370  0.42555974  0.15501603     0.15130
H295        H  0.23760705  0.40941897  0.05423099     0.14840
N296        N  0.18608346  0.40961604  0.04085201     0.73940
O297        O  0.24310178  0.44547526  0.18885557    -0.39510
O298        O  0.24475605  0.40322726  0.17833749    -0.39460
O299        O  0.18520239  0.43192805  0.02891463    -0.40160
O300        O  0.18131040  0.38668504  0.02192069    -0.40230
C301        C  0.46066622  0.38167337  0.12390031    -0.12510
C302        C  0.48817077  0.41019981  0.11987484     0.04500
C303        C  0.48576354  0.43613866  0.11332207    -0.07800
C304        C  0.45648665  0.43316693  0.11000655    -0.08540
C305        C  0.42877996  0.40483591  0.11473261    -0.03090
C306        C  0.43119025  0.37884682  0.12234525     0.03730
N307        N  0.40453847  0.34993747  0.13016608     0.66230
H308        H  0.46211340  0.36176389  0.13050907     0.15130
H309        H  0.45568975  0.45383749  0.10522597     0.14840
N310        N  0.01286037  0.46614573  0.11200903     0.73940
O311        O  0.40018032  0.32498746  0.11582492    -0.39510
O312        O  0.39062979  0.34856450  0.15662846    -0.39460
O313        O  0.02770253  0.47423511  0.08566490    -0.40160
O314        O  0.02346177  0.48348398  0.13807200    -0.40230
C315        C  0.98596985  0.12241534  0.50327024    -0.12510
C316        C  0.48041340  0.14332736  0.48727852     0.04500
C317        C  0.99587206  0.17490447  0.49887779    -0.07800
C318        C  0.01694033  0.18469724  0.02597284    -0.08540
C319        C  0.02362260  0.16401985  0.04084912    -0.03090
C320        C  0.00774146  0.13239358  0.02950144     0.03730
N321        N  0.01385747  0.11026484  0.04361006     0.66230
H322        H  0.97498001  0.09845364  0.49360464     0.15130
H323        H  0.02825189  0.20864254  0.03564642     0.14840
N324        N  0.49022645  0.19702397  0.48375758     0.73940
O325        O  0.99229402  0.08235474  0.04510519    -0.39510
O326        O  0.04151796  0.11714211  0.04924906    -0.39460
O327        O  0.46489355  0.18809926  0.46837579    -0.40160
O328        O  0.00924137  0.22581751  0.48827781    -0.40230
C329        C  0.00224644  0.18023558  0.22174843    -0.12510
C330        C  0.02403003  0.17047877  0.21938244     0.04500
C331        C  0.02418075  0.15095227  0.24313806    -0.07800
C332        C  0.00366955  0.14260507  0.26911066    -0.08540
C333        C  0.48259629  0.15316254  0.27257399    -0.03090
C334        C  0.48144619  0.17190355  0.24811299     0.03730
N335        N  0.46059856  0.18373232  0.24995439     0.66230
H336        H  0.00153832  0.19455728  0.20306072     0.15130
H337        H  0.00441274  0.12763087  0.28699482     0.14840
N338        N  0.04412956  0.13820871  0.24069787     0.73940
O339        O  0.47004604  0.21117178  0.24222900    -0.39510
O340        O  0.43171915  0.16529771  0.25188412    -0.39460
O341        O  0.07216603  0.15471575  0.25040419    -0.40160
O342        O  0.03218315  0.10910892  0.23718479    -0.40230
C343        C  0.35762758  0.49575299  0.47526479    -0.12510
C344        C  0.37875456  0.02739988  0.48217003     0.04500
C345        C  0.38721311  0.03925443  0.01516441    -0.07800
C346        C  0.37494388  0.01876706  0.04061156    -0.08540
C347        C  0.35466729  0.48683336  0.03371644    -0.03090
C348        C  0.34508572  0.47519529  0.50066389     0.03730
N349        N  0.32236963  0.44308103  0.49245936     0.66230
H350        H  0.35138873  0.48695655  0.44974960     0.15130
H351        H  0.38171159  0.02773699  0.06598245     0.14840
N352        N  0.40829131  0.07173590  0.02315893     0.73940
O353        O  0.32195001  0.43092948  0.46422117    -0.39510
O354        O  0.29982665  0.42833815  0.51110845    -0.39460
O355        O  0.40595037  0.09186936  0.00805421    -0.40160
O356        O  0.42646899  0.08034170  0.04808480    -0.40230
C357        C  0.38627490  0.00760119  0.28511370    -0.12510
C358        C  0.38634251  0.03549282  0.28351606     0.04500
C359        C  0.37550579  0.04139006  0.25404678    -0.07800
C360        C  0.36858697  0.02092105  0.22608788    -0.08540
C361        C  0.37055495  0.49407733  0.22707527    -0.03090
C362        C  0.37682874  0.48599839  0.25774027     0.03730
N363        N  0.36972290  0.45495677  0.26268595     0.66230
H364        H  0.39198871  0.00193004  0.30846000     0.15130
H365        H  0.36127795  0.02581937  0.20322140     0.14840
N366        N  0.36998625  0.06683242  0.25208901     0.73940
O367        O  0.38125054  0.44974037  0.28744649    -0.39510
O368        O  0.34623422  0.43245251  0.24793787    -0.39460
O369        O  0.38658825  0.09218772  0.26847819    -0.40160
O370        O  0.34924084  0.06453848  0.23246661    -0.40230
C371        C  0.05336345  0.12352461  0.38996952    -0.12510
C372        C  0.02653186  0.09879353  0.40251969     0.04500
C373        C  0.02927115  0.07766615  0.42205276    -0.07800
C374        C  0.05778944  0.07906581  0.42362425    -0.08540
C375        C  0.08416802  0.10224714  0.40855865    -0.03090
C376        C  0.08275533  0.12730364  0.39598499     0.03730
N377        N  0.10981525  0.15798174  0.39538040     0.66230
H378        H  0.05165725  0.14171948  0.37859596     0.15130
H379        H  0.05924887  0.06181999  0.43717838     0.14840
N380        N  0.00420607  0.05528715  0.44109416     0.73940
O381        O  0.10699914  0.18003573  0.38580181    -0.39510
O382        O  0.13347816  0.16493100  0.41295175    -0.39460
O383        O  0.47709807  0.03883425  0.42876468    -0.40160
O384        O  0.00995344  0.04941920  0.46922704    -0.40230
C385        C  0.30143720  0.12047533  0.36965090    -0.12510
C386        C  0.27673378  0.09528065  0.35187415     0.04500
C387        C  0.28103164  0.07200164  0.33603579    -0.07800
C388        C  0.31001389  0.07435053  0.33866007    -0.08540
C389        C  0.33433974  0.09885803  0.35746402    -0.03090
C390        C  0.33025724  0.12238494  0.37306996     0.03730
N391        N  0.35448378  0.14767894  0.39304672     0.66230
H392        H  0.29766253  0.13778684  0.38249792     0.15130
H393        H  0.31325797  0.05624306  0.32695468     0.14840
N394        N  0.25574993  0.04468337  0.31964758     0.73940
O395        O  0.35697224  0.17409965  0.39402444    -0.39510
O396        O  0.37011754  0.14263179  0.41352306    -0.39460
O397        O  0.24069353  0.04716205  0.29631400    -0.40160
O398        O  0.25164622  0.01824388  0.32489915    -0.40230
C399        C  0.03219085  0.35923378  0.50188572    -0.12510
C400        C  0.01587329  0.35471112  0.03137428     0.04500
C401        C  0.48439374  0.34679024  0.02950504    -0.07800
C402        C  0.47115663  0.34636518  0.99861078    -0.08540
C403        C  0.48809046  0.35250121  0.46938705    -0.03090
C404        C  0.01860505  0.35765939  0.47106169     0.03730
N405        N  0.03695660  0.36355095  0.44218162     0.66230
H406        H  0.05651592  0.36587543  0.50305348     0.15130
H407        H  0.44717051  0.34075123  0.99722153     0.14840
N408        N  0.46583170  0.33983400  0.05849420     0.73940
O409        O  0.06261649  0.38868724  0.44111492    -0.39510
O410        O  0.03104522  0.34145826  0.42137924    -0.39460
O411        O  0.94104725  0.34077835  0.05821094    -0.40160
O412        O  0.47161320  0.32849027  0.08263447    -0.40230
C413        C  0.99105080  0.33187975  0.26163478    -0.12510
C414        C  0.47609632  0.34913240  0.26747658     0.04500
C415        C  0.47275978  0.36449384  0.24113092    -0.07800
C416        C  0.98424920  0.36252028  0.21021451    -0.08540
C417        C  0.00205771  0.34829524  0.20523013    -0.03090
C418        C  0.00503303  0.33202001  0.23113033     0.03730
N419        N  0.02348529  0.31738715  0.22783289     0.66230
H420        H  0.99346481  0.31975231  0.28170311     0.15130
H421        H  0.98276276  0.37591966  0.19090313     0.14840
N422        N  0.46058516  0.38471473  0.24577020     0.73940
O423        O  0.03352690  0.31129187  0.25318613    -0.39510
O424        O  0.02811420  0.30854176  0.19977950    -0.39460
O425        O  0.47556782  0.40892613  0.26448833    -0.40160
O426        O  0.44199552  0.38390044  0.22418533    -0.40230
C427        C  0.44060008  0.46413677  0.37857830    -0.12510
C428        C  0.41209939  0.43575065  0.37931321     0.04500
C429        C  0.38439230  0.43639588  0.37271982    -0.07800
C430        C  0.38565128  0.46505761  0.37222710    -0.08540
C431        C  0.41402392  0.49328973  0.37270236    -0.03090
C432        C  0.44177863  0.49213699  0.37184383     0.03730
N433        N  0.47044943  0.01787184  0.36113239     0.66230
H434        H  0.46213918  0.46389707  0.37975139     0.15130
H435        H  0.36406962  0.46513902  0.37016627     0.14840
N436        N  0.35502744  0.40875593  0.36479095     0.73940
O437        O  0.49606001  0.01977883  0.36772483    -0.39510
O438        O  0.46978391  0.03473644  0.33946664    -0.39460
O439        O  0.33067061  0.40603852  0.37742457    -0.40160
O440        O  0.35225305  0.39251958  0.33871263    -0.40230
C441        C  0.43016036  0.20692070  0.41650413    -0.12510
C442        C  0.44301746  0.20252334  0.38732081     0.04500
C443        C  0.45246546  0.22446172  0.36308846    -0.07800
C444        C  0.44660620  0.24884680  0.36754407    -0.08540
C445        C  0.43240433  0.25289066  0.39597429    -0.03090
C446        C  0.42558259  0.23241591  0.42166709     0.03730
N447        N  0.41395966  0.23665734  0.45271524     0.66230
H448        H  0.42337428  0.19027169  0.43528175     0.15130
H449        H  0.45367834  0.26519984  0.34835126     0.14840
N450        N  0.46774859  0.22231411  0.33367177     0.73940
O451        O  0.39355498  0.21326166  0.46688505    -0.39510
O452        O  0.42852695  0.26240918  0.46912279    -0.39460
O453        O  0.48663060  0.21263817  0.33472197    -0.40160
O454        O  0.96579426  0.23413176  0.30771826    -0.40230
C455        C  0.03684866  0.45296113  0.38867067    -0.12510
C456        C  0.03760274  0.42678870  0.37535834     0.04500
C457        C  0.06608692  0.43124018  0.36315563    -0.07800
C458        C  0.09273863  0.46134179  0.36543730    -0.08420
C459        C  0.09137309  0.48739854  0.37798756    -0.03090
C460        C  0.06310053  0.48266745  0.39050458     0.03730
N461        N  0.06127539  0.00689177  0.40872840     0.66230
H462        H  0.01569437  0.45043716  0.39896872     0.15130
H463        H  0.11461620  0.46443087  0.35729050     0.14840
N464        N  0.06863815  0.40594788  0.34854275     0.73940
O465        O  0.03828964  0.01026754  0.40370381    -0.39510
O466        O  0.07698253  0.01821378  0.43535971    -0.39460
O467        O  0.05247991  0.39098203  0.32301057    -0.40160
O468        O  0.09127528  0.40290786  0.35667514    -0.40230
C469        C  0.29030227  0.19762441  0.39728705    -0.12510
C470        C  0.27419246  0.18593528  0.36682314     0.04500
C471        C  0.28777426  0.20278926  0.33846091    -0.07800
C472        C  0.31671148  0.23050864  0.34132282    -0.08540
C473        C  0.33212067  0.24294278  0.37208048    -0.03090
C474        C  0.31868336  0.22578099  0.40036965     0.03730
N475        N  0.33249727  0.23709597  0.43277296     0.66230
H476        H  0.28046821  0.18509913  0.41929484     0.15130
H477        H  0.32612394  0.24350495  0.31951612     0.14840
N478        N  0.27140859  0.19395614  0.30718890     0.73940
O479        O  0.31640341  0.23860416  0.45608284    -0.39510
O480        O  0.35848374  0.23991544  0.43940413    -0.39460
O481        O  0.24658333  0.19458957  0.30434920    -0.40160
O482        O  0.28498799  0.19250829  0.28143512    -0.40230
C483        C  0.34804504  0.32241468  0.49971969    -0.12510
C484        C  0.35321856  0.33570197  0.46898235     0.04500
C485        C  0.34350276  0.35732825  0.46412100    -0.07800
C486        C  0.33160120  0.36707222  0.49036699    -0.08540
C487        C  0.32909998  0.35586172  0.02162765    -0.03090
C488        C  0.33603496  0.33219692  0.02591442     0.03730
N489        N  0.33092037  0.31776742  0.05660813     0.66230
H490        H  0.35449434  0.30519636  0.50390952     0.15130
H491        H  0.32592084  0.38488877  0.48671355     0.14840
N492        N  0.34796612  0.37183738  0.43369742     0.73940
O493        O  0.30946514  0.28986227  0.05829159    -0.39510
O494        O  0.35159436  0.33017911  0.07925681    -0.39460
O495        O  0.33161252  0.35598822  0.40860957    -0.40160
O496        O  0.36208879  0.40110224  0.43410367    -0.40230
C497        C  0.39684999  0.41460102  0.23665127    -0.12510
C498        C  0.36919427  0.39268920  0.22000417     0.04500
C499        C  0.35181206  0.36269578  0.23198508    -0.07800
C500        C  0.36327544  0.35532021  0.25962410    -0.08540
C501        C  0.39155271  0.37738336  0.27578743    -0.03090
C502        C  0.40778602  0.40798644  0.26454308     0.03730
N503        N  0.43501351  0.43327134  0.28103133     0.66230
H504        H  0.41002031  0.43804870  0.22846121     0.15130
H505        H  0.35020070  0.33201103  0.26811334     0.14840
N506        N  0.32369900  0.33902253  0.21562826     0.73940
O507        O  0.45765968  0.45148928  0.26408700    -0.39510
O508        O  0.43252072  0.44293442  0.30951674    -0.39460
O509        O  0.32464016  0.32951729  0.18647161    -0.40160
O510        O  0.29989716  0.32313189  0.23230619    -0.40230
O511        O  0.43762359  0.40691891  0.88974555    -0.80380
O512        O  0.45217578  0.35914173  0.93702323    -0.80400
O513        O  0.37082496  0.33454108  0.91325234    -0.80410
O514        O  0.50221547  0.37163720  0.85939771    -0.80350
O515        O  0.39142292  0.32210489  0.95488694    -0.80470
O516        O  0.48505188  0.39597975  0.88846921    -0.80390
O517        O  0.47536364  0.33647285  0.91218566    -0.80380
O518        O  0.39055475  0.38078113  0.86912652    -0.80420
C519        C  0.41290857  0.40615682  0.88130164     1.09310
C520        C  0.47228604  0.35080302  0.93759539     1.09200
C521        C  0.37242507  0.33007159  0.94457122     1.09330
C522        C  0.50780550  0.39633925  0.87547027     1.09210
O523        O  0.47193847  0.37712861  0.81586141    -0.80380
O524        O  0.37327266  0.28733306  0.90160969    -0.80460
O525        O  0.38899825  0.34148132  0.81447325    -0.80390
O526        O  0.42546718  0.28914844  0.86831178    -0.80370
O527        O  0.42293651  0.29291431  0.92132139    -0.80420
O528        O  0.42634229  0.38973394  0.82098009    -0.80390
O529        O  0.45150716  0.32636933  0.81669553    -0.80350
O530        O  0.36652690  0.29265424  0.85127797    -0.80420
Co531      Co  0.45400576  0.38963820  0.85575102     1.51530
Co532      Co  0.41283416  0.32733470  0.91546756     1.51690
Co533      Co  0.38288497  0.33711205  0.86255275     1.51570
Co534      Co  0.46080723  0.33091299  0.86399901     1.51470
O535        O  0.42821980  0.34504087  0.87079383    -1.42310
C536        C  0.46493912  0.35088719  0.80125727     1.09240
C537        C  0.35904087  0.27547345  0.87473471     1.09330
C538        C  0.40318433  0.36868363  0.80458183     1.09270
C539        C  0.42519626  0.27839367  0.89570741     1.09240
O540        O  0.43579510  0.13768798  0.80241370    -0.80380
O541        O  0.43799185  0.04866184  0.88267679    -0.80400
O542        O  0.99145297  0.10916552  0.87428640    -0.80410
O543        O  0.37528691  0.05096531  0.83593593    -0.80350
O544        O  0.47957886  0.09168900  0.92344815    -0.80470
O545        O  0.42216432  0.07987957  0.81707004    -0.80390
O546        O  0.38869866  0.02274241  0.88206185    -0.80380
O547        O  0.47696522  0.14248176  0.82971683    -0.80420
C548        C  0.46409685  0.14484137  0.80299368     1.09310
C549        C  0.41370732  0.02298945  0.87802880     1.09200
C550        C  0.99767023  0.09934901  0.89964008     1.09330
C551        C  0.39521881  0.05624412  0.81379272     1.09210
O552        O  0.38006770  0.10213687  0.83661215    -0.80380
O553        O  0.43897491  0.10954459  0.94965447    -0.80460
O554        O  0.46777833  0.17297977  0.88962336    -0.80390
O555        O  0.38361706  0.05803371  0.93638807    -0.80370
O556        O  0.42206688  0.04904669  0.94816594    -0.80420
O557        O  0.42361888  0.15202314  0.86323056    -0.80390
O558        O  0.36839822  0.08962934  0.88808691    -0.80350
O559        O  0.48373148  0.14363255  0.92975509    -0.80420
Co560      Co  0.42531078  0.11648985  0.84177762     1.51530
Co561      Co  0.43564874  0.07827060  0.91535580     1.51690
Co562      Co  0.47558193  0.13825580  0.88081028     1.51570
Co563      Co  0.38315677  0.05980432  0.88545442     1.51470
O564        O  0.42879923  0.10058673  0.88289545    -1.42310
C565        C  0.36285265  0.09790688  0.86124421     1.09240
C566        C  0.46596893  0.13300388  0.95399281     1.09330
C567        C  0.44447773  0.17410613  0.88068384     1.09270
C568        C  0.39556611  0.04569971  0.95436874     1.09240
O569        O  0.02101666  0.38894239  0.62201008    -0.80380
O570        O  0.15061641  0.47316952  0.57840906    -0.80400
O571        O  0.09680854  0.47919347  0.66754812    -0.80410
O572        O  0.05426532  0.39785663  0.56171819    -0.80350
O573        O  0.12356493  0.49340023  0.62280264    -0.80470
O574        O  0.03636421  0.35545909  0.58665496    -0.80390
O575        O  0.10542441  0.44969862  0.55448132    -0.80380
O576        O  0.04126241  0.43705292  0.63937766    -0.80420
C577        C  0.01861135  0.41266237  0.62654822     1.09310
C578        C  0.13262847  0.47222092  0.55625270     1.09200
C579        C  0.11032702  0.49892369  0.64649198     1.09330
C580        C  0.03530980  0.36945776  0.56185014     1.09210
O581        O  0.08695621  0.36833897  0.63572465    -0.80380
O582        O  0.14279618  0.46886980  0.67273969    -0.80460
O583        O  0.04149079  0.39092317  0.67964304    -0.80390
O584        O  0.14261321  0.42034672  0.57512667    -0.80370
O585        O  0.15276436  0.43402427  0.62745629    -0.80420
O586        O  0.02616564  0.34557522  0.65381038    -0.80390
O587        O  0.08981795  0.36790972  0.58185191    -0.80350
O588        O  0.10280566  0.43095491  0.69409341    -0.80420
Co589      Co  0.05622202  0.38108936  0.63046233     1.51530
Co590      Co  0.13721025  0.46244650  0.62491505     1.51690
Co591      Co  0.07303772  0.43345763  0.66405556     1.51570
Co592      Co  0.09722772  0.41022187  0.57162479     1.51470
O593        O  0.09122594  0.42437475  0.61908366    -1.42310
C594        C  0.09144109  0.35732300  0.60908650     1.09240
C595        C  0.12904372  0.45509231  0.69775998     1.09330
C596        C  0.02472602  0.36125983  0.67860000     1.09270
C597        C  0.15871495  0.42398552  0.60113004     1.09240
O598        O  0.18514745  0.15221340  0.85003263    -0.80380
O599        O  0.14529487  0.02062517  0.88999651    -0.80400
O600        O  0.16360186  0.05604200  0.81449922    -0.80410
O601        O  0.11270133  0.07965600  0.92538678    -0.80350
O602        O  0.18632255  0.03554468  0.84110017    -0.80470
O603        O  0.13474130  0.11406079  0.88766468    -0.80390
O604        O  0.11870939  0.04309953  0.87643387    -0.80380
O605        O  0.16340182  0.10982459  0.81871535    -0.80420
C606        C  0.17210398  0.13817315  0.82259454     1.09310
C607        C  0.11999208  0.01867188  0.88061959     1.09200
C608        C  0.17076435  0.03543869  0.81627438     1.09330
C609        C  0.11207089  0.09916222  0.90758990     1.09210
O610        O  0.18563560  0.16234248  0.91866363    -0.80380
O611        O  0.23416578  0.08538015  0.88395997    -0.80460
O612        O  0.22979444  0.14302862  0.83838530    -0.80390
O613        O  0.14588309  0.05472184  0.93907804    -0.80370
O614        O  0.19411756  0.06746912  0.93517746    -0.80420
O615        O  0.22840147  0.14831180  0.89263268    -0.80390
O616        O  0.17284407  0.11772172  0.93992138    -0.80350
O617        O  0.22983920  0.08950700  0.83066196    -0.80420
Co618      Co  0.18285654  0.12902964  0.89079733     1.51530
Co619      Co  0.18997717  0.05501188  0.88736601     1.51690
Co620      Co  0.19506923  0.09873749  0.82788158     1.51570
Co621      Co  0.14660774  0.08138022  0.90432103     1.51470
O622        O  0.18105728  0.08900928  0.87472369    -1.42310
C623        C  0.17757623  0.14572769  0.94349028     1.09240
C624        C  0.24563649  0.09065704  0.85570343     1.09330
C625        C  0.24284816  0.15726338  0.86593875     1.09270
C626        C  0.16934371  0.05526557  0.95102554     1.09240
O627        O  0.03889968  0.12214410  0.66775627    -0.80380
O628        O  0.13526012  0.20362442  0.57193086    -0.80400
O629        O  0.03190806  0.17900894  0.59759755    -0.80410
O630        O  0.10037654  0.11836586  0.62828544    -0.80350
O631        O  0.07084431  0.17866344  0.57238484    -0.80470
O632        O  0.09187833  0.11912390  0.68088482    -0.80390
O633        O  0.11731476  0.15582255  0.58089134    -0.80380
O634        O  0.03967803  0.13147301  0.61493239    -0.80420
C635        C  0.02684137  0.11431258  0.63854220     1.09310
C636        C  0.13110945  0.17736099  0.56203366     1.09200
C637        C  0.04322210  0.17498279  0.57125893     1.09330
C638        C  0.09627674  0.10625213  0.65533107     1.09210
O639        O  0.12443778  0.18339474  0.70386743    -0.80380
O640        O  0.11030771  0.24053967  0.58814232    -0.80460
O641        O  0.03452095  0.17120726  0.66192830    -0.80390
O642        O  0.16610017  0.20648674  0.62444216    -0.80370
O643        O  0.14306712  0.23329567  0.63674808    -0.80420
O644        O  0.07301424  0.18693421  0.69588405    -0.80390
O645        O  0.14826462  0.16466441  0.67368626    -0.80350
O646        O  0.08211006  0.22445539  0.63276196    -0.80420
Co647      Co  0.08283320  0.15437445  0.68471669     1.51530
Co648      Co  0.10700233  0.20537516  0.60755741     1.51690
Co649      Co  0.06226572  0.17672623  0.62355919     1.51570
Co650      Co  0.13117370  0.16198508  0.62707078     1.51470
O651        O  0.09804959  0.17219483  0.63970929    -1.42310
C652        C  0.14486638  0.17575223  0.70143279     1.09240
C653        C  0.09617437  0.24537280  0.61156996     1.09330
C654        C  0.04505735  0.17857491  0.69116907     1.09270
C655        C  0.16749375  0.23198962  0.63326110     1.09240
O656        O  0.39908502  0.42853145  0.60480251    -0.80380
O657        O  0.34790785  0.44272372  0.56004740    -0.80400
O658        O  0.33874376  0.37768503  0.57688729    -0.80410
O659        O  0.37904664  0.50438835  0.63467938    -0.80350
O660        O  0.30409311  0.38139706  0.54699683    -0.80470
O661        O  0.40106665  0.48285671  0.60769113    -0.80390
O662        O  0.33326921  0.47300391  0.58645325    -0.80380
O663        O  0.37451371  0.38482957  0.62784060    -0.80420
C664        C  0.39894069  0.40496269  0.61426568     1.09310
C665        C  0.34491089  0.46644561  0.56147783     1.09200
C666        C  0.32278903  0.37156376  0.54981809     1.09330
C667        C  0.40267836  0.50709490  0.61974097     1.09210
O668        O  0.38890861  0.47792547  0.67973571    -0.80380
O669        O  0.28747082  0.36894563  0.61121516    -0.80460
O670        O  0.33532341  0.39031632  0.67580168    -0.80390
O671        O  0.29074586  0.43279383  0.63538334    -0.80370
O672        O  0.28649333  0.41716156  0.58366761    -0.80420
O673        O  0.38596256  0.42315962  0.67450279    -0.80390
O674        O  0.33868357  0.46199343  0.68200392    -0.80350
O675        O  0.30988245  0.34296599  0.62771698    -0.80420
Co676      Co  0.39191034  0.45234662  0.64010991     1.51530
Co677      Co  0.32077060  0.40735048  0.58642684     1.51690
Co678      Co  0.33471402  0.38656765  0.62692392     1.51570
Co679      Co  0.33536946  0.46537110  0.63435420     1.51470
O680        O  0.34726720  0.43189580  0.62597276    -1.42310
C681        C  0.36554616  0.47557487  0.69548702     1.09240
C682        C  0.28548023  0.34380796  0.62110153     1.09330
C683        C  0.36238284  0.40256138  0.68895239     1.09270
C684        C  0.27442931  0.42215468  0.60900430     1.09240
C685        C  0.46019177  0.03302271  0.61537931    -0.12510
C686        C  0.43398805  0.03603956  0.62189101     0.04500
C687        C  0.43908214  0.06569669  0.63208781    -0.07800
C688        C  0.46967665  0.09073777  0.63743712    -0.08540
C689        C  0.49549721  0.08702972  0.63241964    -0.03090
C690        C  0.49076748  0.05813990  0.61995437     0.03730
N691        N  0.01641724  0.05376792  0.61175246     0.66230
H692        H  0.45696667  0.01071532  0.60672787     0.15130
H693        H  0.47332867  0.11333099  0.64568349     0.14840
N694        N  0.41377694  0.07113219  0.63629975     0.73940
O695        O  0.01327828  0.02718789  0.61246606    -0.39510
O696        O  0.04061953  0.07512442  0.59946611    -0.39460
O697        O  0.39817668  0.06312315  0.66215560    -0.40160
O698        O  0.41169741  0.08987538  0.61838204    -0.40230
C699        C  0.20794814  0.27168645  0.60115669    -0.12510
C700        C  0.19745172  0.26121835  0.63259432     0.04500
C701        C  0.21514913  0.27921585  0.66112212    -0.07800
C702        C  0.24429567  0.30614536  0.65666375    -0.08540
C703        C  0.25464937  0.31625102  0.62502002    -0.03090
C704        C  0.23573769  0.29941889  0.59717033     0.03730
N705        N  0.24423095  0.31033369  0.56470840     0.66230
H706        H  0.19389464  0.25855754  0.57940704     0.15130
H707        H  0.25882927  0.31980700  0.67790168     0.14840
N708        N  0.20435176  0.27098198  0.69423191     0.73940
O709        O  0.24488909  0.29258971  0.54182985    -0.39510
O710        O  0.24388261  0.33432773  0.55738109    -0.39460
O711        O  0.17673934  0.25010497  0.69929639    -0.40160
O712        O  0.22182269  0.28632100  0.71890479    -0.40230
C713        C  0.15051241  0.18135926  0.76303355    -0.12510
C714        C  0.16006609  0.17432464  0.73268444     0.04500
C715        C  0.17860951  0.16039864  0.73351168    -0.07800
C716        C  0.18279308  0.14973939  0.76349247    -0.08540
C717        C  0.17089326  0.15450789  0.79335099    -0.03090
C718        C  0.15594269  0.17198756  0.79319754     0.03730
N719        N  0.14413000  0.17862578  0.82276042     0.66230
H720        H  0.13733827  0.19311538  0.76325641     0.15130
H721        H  0.19553956  0.13753229  0.76357768     0.14840
N722        N  0.19340439  0.15703269  0.70444024     0.73940
O723        O  0.16152534  0.19037289  0.84825528    -0.39510
O724        O  0.11881997  0.17851748  0.82148028    -0.39460
O725        O  0.20745055  0.17952808  0.68612608    -0.40160
O726        O  0.19691929  0.13386763  0.69999009    -0.40230
C727        C  0.16940754  0.19421985  0.51554346    -0.12510
C728        C  0.14290019  0.17077742  0.53051120     0.04500
C729        C  0.12973103  0.13977637  0.51712984    -0.07800
C730        C  0.14325134  0.13289343  0.99050585    -0.08540
C731        C  0.16931688  0.15591028  0.97517023    -0.03090
C732        C  0.18298189  0.18717538  0.98805327     0.03730
N733        N  0.21127798  0.21149983  0.97499832     0.66230
H734        H  0.18031122  0.21784385  0.52614687     0.15130
H735        H  0.13226355  0.10891503  0.98111089     0.14840
N736        N  0.10175612  0.11465837  0.52929145     0.73940
O737        O  0.21816079  0.23947895  0.97904214    -0.39510
O738        O  0.23133019  0.20566592  0.96324446    -0.39460
O739        O  0.07793952  0.10100441  0.51039111    -0.40160
O740        O  0.10355674  0.10057855  0.55331264    -0.40230
C741        C  0.14574482  0.03915907  0.50519317    -0.12510
C742        C  0.16556729  0.03831149  0.98103919     0.04500
C743        C  0.17497404  0.51610652  0.98248463    -0.07800
C744        C  0.16449799  0.49558609  0.00804137    -0.08540
C745        C  0.14384017  0.49575950  0.53142920    -0.03090
C746        C  0.13401140  0.01772768  0.52995751     0.03730
N747        N  0.11182785  0.01840946  0.55241572     0.66230
H748        H  0.13771978  0.05549162  0.50335175     0.15130
H749        H  0.17154280  0.47841292  0.00884549     0.14840
N750        N  0.19230702  0.51181334  0.95657256     0.73940
O751        O  0.11039238  0.04279921  0.55682759    -0.39510
O752        O  0.09088758  0.99387594  0.56433722    -0.39460
O753        O  0.21923649  0.03355761  0.95049683    -0.40160
O754        O  0.18277075  0.48498639  0.94331217    -0.40230
C755        C  0.14823708  0.98170707  0.78970988    -0.12510
C756        C  0.16402467  0.01407702  0.78700650     0.04500
C757        C  0.16995786  0.02606057  0.75543889    -0.07800
C758        C  0.15911079  0.00567000  0.72773009    -0.08540
C759        C  0.14140039  0.47319670  0.72985634    -0.03090
C760        C  0.13561405  0.46101659  0.76146346     0.03730
N761        N  0.11660448  0.42833810  0.76561650     0.66230
H762        H  0.14409496  0.47253367  0.81380304     0.15130
H763        H  0.16390220  0.01588840  0.70397867     0.14840
N764        N  0.18650731  0.05891998  0.75079553     0.73940
O765        O  0.12535816  0.41565704  0.78562108    -0.39510
O766        O  0.08861102  0.41394957  0.75540811    -0.39460
O767        O  0.21198955  0.07670303  0.76604584    -0.40160
O768        O  0.17815130  0.06946256  0.72789630    -0.40230
C769        C  0.12559095  0.08070661  0.63785574    -0.12510
C770        C  0.10151180  0.07993323  0.65682326     0.04500
C771        C  0.08291216  0.05397248  0.67501419    -0.07800
C772        C  0.08678632  0.02822569  0.67135708    -0.08540
C773        C  0.10978573  0.02819968  0.65097369    -0.03090
C774        C  0.13074846  0.05563333  0.63569232     0.03730
N775        N  0.15800543  0.05911458  0.61960244     0.66230
H776        H  0.14106678  0.10146813  0.62527753     0.15130
H777        H  0.07131601  0.00788314  0.68450222     0.14840
N778        N  0.05946797  0.05289033  0.69635550     0.73940
O779        O  0.16906391  0.07658546  0.59583611    -0.39510
O780        O  0.17426774  0.04967678  0.63289401    -0.39460
O781        O  0.03231263  0.02949234  0.69448214    -0.40160
O782        O  0.06728167  0.07201723  0.72104836    -0.40230
C783        C  0.11501471  0.32820437  0.63079177    -0.12510
C784        C  0.09375138  0.32921978  0.60912036     0.04500
C785        C  0.07284957  0.30228256  0.58964414    -0.07800
C786        C  0.07358693  0.27501017  0.59218561    -0.08540
C787        C  0.09494564  0.27398711  0.61346152    -0.03090
C788        C  0.11603136  0.30079225  0.63309172     0.03730
N789        N  0.13855819  0.30072161  0.65501822     0.66230
H790        H  0.13072794  0.34879314  0.64606589     0.15130
H791        H  0.05760633  0.25448841  0.57696625     0.14840
N792        N  0.04994902  0.30182171  0.56806812     0.73940
O793        O  0.16474702  0.32504753  0.66034488    -0.39510
O794        O  0.13130721  0.27754218  0.67172704    -0.39460
O795        O  0.05820391  0.31543434  0.54142013    -0.40160
O796        O  0.02148651  0.28276779  0.57210972    -0.40230
C797        C  0.20043261  0.42224387  0.63261135    -0.12510
C798        C  0.18615401  0.41931872  0.60164505     0.04500
C799        C  0.19943003  0.41349529  0.57321315    -0.07800
C800        C  0.22712675  0.41257152  0.57641518    -0.08540
C801        C  0.24236514  0.41763843  0.60732713    -0.03090
C802        C  0.22785757  0.42131400  0.63583486     0.03730
N803        N  0.24056841  0.42433512  0.66841699     0.66230
H804        H  0.19032188  0.42555742  0.65501366     0.15130
H805        H  0.23760829  0.40942033  0.55422932     0.14840
N806        N  0.18608442  0.40961692  0.54084943     0.73940
O807        O  0.24309913  0.44547307  0.68885447    -0.39510
O808        O  0.24475476  0.40322591  0.67833565    -0.39460
O809        O  0.18520171  0.43192848  0.52891315    -0.40160
O810        O  0.18131311  0.38668709  0.52191713    -0.40230
C811        C  0.46067212  0.38168750  0.62393960    -0.12510
C812        C  0.48817564  0.41020769  0.61988913     0.04500
C813        C  0.48576852  0.43613795  0.61329427    -0.07800
C814        C  0.45649059  0.43316292  0.60996430    -0.08540
C815        C  0.42878456  0.40483987  0.61472419    -0.03090
C816        C  0.43119645  0.37885941  0.62237144     0.03730
N817        N  0.40454539  0.34995552  0.63020637     0.66230
H818        H  0.46211983  0.36178402  0.63057144     0.15130
H819        H  0.45569292  0.45382685  0.60515125     0.14840
N820        N  0.01286717  0.46613951  0.61194522     0.73940
O821        O  0.40018172  0.32499995  0.61587434    -0.39510
O822        O  0.39064486  0.34859423  0.65667180    -0.39460
O823        O  0.02755924  0.47429231  0.58551790    -0.40160
O824        O  0.02355211  0.48346616  0.63800643    -0.40230
C825        C  0.98596971  0.12241513  0.00326998    -0.12510
C826        C  0.48041377  0.14332746  0.98727818     0.04500
C827        C  0.99587297  0.17490462  0.99887740    -0.07800
C828        C  0.01693965  0.18469747  0.52597308    -0.08540
C829        C  0.02362239  0.16402044  0.54084949    -0.03090
C830        C  0.00774147  0.13239408  0.52950200     0.03730
N831        N  0.01385711  0.11026540  0.54361153     0.66230
H832        H  0.97497959  0.09845343  0.99360432     0.15130
H833        H  0.02825091  0.20864278  0.53564660     0.14840
N834        N  0.49022815  0.19702453  0.98375680     0.73940
O835        O  0.99229323  0.08235567  0.54510816    -0.39510
O836        O  0.04151743  0.11714239  0.54925122    -0.39460
O837        O  0.46489585  0.18810030  0.96837397    -0.40160
O838        O  0.00924345  0.22581798  0.98827742    -0.40230
C839        C  0.00224693  0.18023587  0.72174952    -0.12510
C840        C  0.02403065  0.17047923  0.71938300     0.04500
C841        C  0.02418099  0.15095176  0.74313765    -0.07800
C842        C  0.00366960  0.14260380  0.76911007    -0.08540
C843        C  0.48259653  0.15316143  0.77257417    -0.03090
C844        C  0.48144643  0.17190297  0.74811387     0.03730
N845        N  0.46059823  0.18373104  0.74995566     0.66230
H846        H  0.00153886  0.19455805  0.70306237     0.15130
H847        H  0.00441266  0.12762905  0.78699360     0.14840
N848        N  0.04412966  0.13820806  0.74069674     0.73940
O849        O  0.47004538  0.21117079  0.74223160    -0.39510
O850        O  0.43171882  0.16529571  0.75188401    -0.39460
O851        O  0.07216644  0.15471520  0.75040194    -0.40160
O852        O  0.03218307  0.10910820  0.73718449    -0.40230
C853        C  0.35762882  0.49575221  0.97526476    -0.12510
C854        C  0.37875560  0.02739915  0.98217053     0.04500
C855        C  0.38721260  0.03925551  0.51516377    -0.07800
C856        C  0.37494384  0.01876846  0.54061131    -0.08540
C857        C  0.35466709  0.48683491  0.53371669    -0.03090
C858        C  0.34508650  0.47519413  0.00066345     0.03730
N859        N  0.32237047  0.44307997  0.99245833     0.66230
H860        H  0.35139043  0.48695615  0.94974942     0.15130
H861        H  0.38171213  0.02773865  0.56598207     0.14840
N862        N  0.40829090  0.07173702  0.52315778     0.73940
O863        O  0.32195107  0.43092887  0.96421993    -0.39510
O864        O  0.29982734  0.42833672  0.01110714    -0.39460
O865        O  0.40594920  0.09187026  0.50805350    -0.40160
O866        O  0.42646937  0.08034308  0.54808299    -0.40230
C867        C  0.38627347  0.00759948  0.78511469    -0.12510
C868        C  0.38634329  0.03549225  0.78351659     0.04500
C869        C  0.37550808  0.04139051  0.75404691    -0.07800
C870        C  0.36858891  0.02092145  0.72608806    -0.08540
C871        C  0.37055433  0.49407622  0.72707606    -0.03090
C872        C  0.37682597  0.48599606  0.75774141     0.03730
N873        N  0.36971894  0.45495392  0.76268673     0.66230
H874        H  0.39198625  0.00192776  0.80846121     0.15130
H875        H  0.36128170  0.02582089  0.70322111     0.14840
N876        N  0.36998999  0.06683379  0.75208876     0.73940
O877        O  0.38124472  0.44973630  0.78744797    -0.39510
O878        O  0.34623156  0.43245024  0.74793620    -0.39460
O879        O  0.38659216  0.09218871  0.76847850    -0.40160
O880        O  0.34924528  0.06454081  0.73246597    -0.40230
C881        C  0.05336398  0.12352223  0.88997024    -0.12510
C882        C  0.02653243  0.09879168  0.90252103     0.04500
C883        C  0.02927161  0.07766431  0.92205428    -0.07800
C884        C  0.05778967  0.07906335  0.92362517    -0.08540
C885        C  0.08416817  0.10224423  0.90855901    -0.03090
C886        C  0.08275570  0.12730089  0.89598542     0.03730
N887        N  0.10981571  0.15797891  0.89538091     0.66230
H888        H  0.05165796  0.14171715  0.87859654     0.15130
H889        H  0.05924903  0.06181747  0.93717926     0.14840
N890        N  0.00420667  0.05528588  0.94109629     0.73940
O891        O  0.10699978  0.18003298  0.88580223    -0.39510
O892        O  0.13347830  0.16492809  0.91295274    -0.39460
O893        O  0.47709806  0.03883364  0.92876751    -0.40160
O894        O  0.00995446  0.04941756  0.96922877    -0.40230
C895        C  0.30143904  0.12047525  0.86965057    -0.12510
C896        C  0.27673541  0.09528020  0.85187451     0.04500
C897        C  0.28103262  0.07200013  0.83603793    -0.07800
C898        C  0.31001466  0.07434874  0.83866241    -0.08540
C899        C  0.33434084  0.09885685  0.85746530    -0.03090
C900        C  0.33025877  0.12238438  0.87307026     0.03730
N901        N  0.35448532  0.14767826  0.89304704     0.66230
H902        H  0.29766469  0.13778734  0.88249673     0.15130
H903        H  0.31325831  0.05624061  0.82695807     0.14840
N904        N  0.25575040  0.04468113  0.81965151     0.73940
O905        O  0.35697443  0.17409924  0.89402405    -0.39510
O906        O  0.37011780  0.14263063  0.91352458    -0.39460
O907        O  0.24069504  0.04715855  0.79631594    -0.40160
O908        O  0.25164541  0.01824182  0.82490664    -0.40230
C909        C  0.03221044  0.35926592  0.00187825    -0.12510
C910        C  0.01586161  0.35471047  0.53138310     0.04500
C911        C  0.48439170  0.34682212  0.52951406    -0.07800
C912        C  0.47115865  0.34639834  0.49861781    -0.08540
C913        C  0.48809557  0.35250063  0.96938305    -0.03090
C914        C  0.01862292  0.35769367  0.97105628     0.03730
N915        N  0.03698492  0.36362688  0.94217941     0.66230
H916        H  0.05654222  0.36593190  0.00304694     0.15130
H917        H  0.44718044  0.34080954  0.49722978     0.14840
N918        N  0.46583547  0.33989508  0.55850567     0.73940
O919        O  0.06263741  0.38877459  0.94113838    -0.39510
O920        O  0.03109038  0.34155995  0.92134725    -0.39460
O921        O  0.94106732  0.34086961  0.55822046    -0.40160
O922        O  0.47160114  0.32854434  0.58265060    -0.40230
C923        C  0.99105040  0.33187965  0.76163641    -0.12510
C924        C  0.47609688  0.34913323  0.76747898     0.04500
C925        C  0.47276404  0.36449859  0.74113523    -0.07800
C926        C  0.98425652  0.36252845  0.71021996    -0.08540
C927        C  0.00206314  0.34830158  0.70523461    -0.03090
C928        C  0.00503499  0.33202247  0.73113289     0.03730
N929        N  0.02348638  0.31738868  0.72783506     0.66230
H930        H  0.99346192  0.31974964  0.78170364     0.15130
H931        H  0.98277380  0.37593183  0.69091104     0.14840
N932        N  0.46058968  0.38471962  0.74577553     0.73940
O933        O  0.03352495  0.31128987  0.75318811    -0.39510
O934        O  0.02811789  0.30854638  0.69978127    -0.39460
O935        O  0.47557247  0.40893057  0.76449427    -0.40160
O936        O  0.44200077  0.38390639  0.72419044    -0.40230
C937        C  0.44060149  0.46413606  0.87858160    -0.12510
C938        C  0.41210070  0.43575001  0.87931604     0.04500
C939        C  0.38439379  0.43639531  0.87272181    -0.07800
C940        C  0.38565286  0.46505701  0.87222860    -0.08540
C941        C  0.41402553  0.49328904  0.87270425    -0.03090
C942        C  0.44178026  0.49213628  0.87184668     0.03730
N943        N  0.47045122  0.01787108  0.86113532     0.66230
H944        H  0.46214052  0.46389629  0.87975532     0.15130
H945        H  0.36407125  0.46513843  0.87016711     0.14840
N946        N  0.35502897  0.40875543  0.86479263     0.73940
O947        O  0.49606164  0.01977788  0.86772816    -0.39510
O948        O  0.46978611  0.03473579  0.83946944    -0.39460
O949        O  0.33067209  0.40603797  0.87742618    -0.40160
O950        O  0.35225471  0.39251937  0.83871410    -0.40230
C951        C  0.43016052  0.20691891  0.91650411    -0.12510
C952        C  0.44301962  0.20252294  0.88732168     0.04500
C953        C  0.45246888  0.22446233  0.86309019    -0.07800
C954        C  0.44660857  0.24884681  0.86754562    -0.08540
C955        C  0.43240455  0.25288906  0.89597483    -0.03090
C956        C  0.42558175  0.23241346  0.92166697     0.03730
N957        N  0.41395639  0.23665314  0.95271424     0.66230
H958        H  0.42337363  0.19026925  0.93528116     0.15130
H959        H  0.45368146  0.26520062  0.84835353     0.14840
N960        N  0.46775397  0.22231618  0.83367445     0.73940
O961        O  0.39355089  0.21325652  0.96688213    -0.39510
O962        O  0.42852227  0.26240427  0.96912327    -0.39460
O963        O  0.48663475  0.21263875  0.83472512    -0.40160
O964        O  0.96580134  0.23413542  0.80772120    -0.40230
C965        C  0.03685053  0.45295873  0.88867144    -0.12510
C966        C  0.03760371  0.42678579  0.87535985     0.04500
C967        C  0.06608819  0.43123653  0.86315791    -0.07800
C968        C  0.09273913  0.46133786  0.86543961    -0.08420
C969        C  0.09137512  0.48739530  0.87798830    -0.03090
C970        C  0.06310248  0.48266475  0.89050516     0.03730
N971        N  0.06127797  0.00688965  0.90872869     0.66230
H972        H  0.01569530  0.45043528  0.89896963     0.15130
H973        H  0.11462301  0.46442724  0.85729078     0.14840
N974        N  0.06863893  0.40594354  0.84854657     0.73940
O975        O  0.03829310  0.01026656  0.90370280    -0.39510
O976        O  0.07698401  0.01821071  0.93536074    -0.39460
O977        O  0.05248128  0.39097725  0.82301433    -0.40160
O978        O  0.09127562  0.40290320  0.85668050    -0.40230
C979        C  0.29030188  0.19762374  0.89728723    -0.12510
C980        C  0.27419225  0.18593473  0.86682323     0.04500
C981        C  0.28777393  0.20278910  0.83846118    -0.07800
C982        C  0.31671118  0.23050845  0.84132329    -0.08540
C983        C  0.33212032  0.24294232  0.87208100    -0.03090
C984        C  0.31868281  0.22578042  0.90037008     0.03730
N985        N  0.33249625  0.23709546  0.93277357     0.66230
H986        H  0.28046778  0.18509830  0.91929492     0.15130
H987        H  0.32612368  0.24350497  0.81951672     0.14840
N988        N  0.27140811  0.19395642  0.80718927     0.73940
O989        O  0.31640211  0.23860400  0.95608295    -0.39510
O990        O  0.35848243  0.23991457  0.93940547    -0.39460
O991        O  0.24658226  0.19458887  0.80435033    -0.40160
O992        O  0.28498772  0.19250999  0.78143505    -0.40230
C993        C  0.34803956  0.32240944  0.99971843    -0.12510
C994        C  0.35321779  0.33570044  0.96898291     0.04500
C995        C  0.34350568  0.35732970  0.96412285    -0.07800
C996        C  0.33160467  0.36707397  0.99036907    -0.08540
C997        C  0.32910092  0.35586357  0.52162683    -0.03090
C998        C  0.33604102  0.33220276  0.52591548     0.03730
N999        N  0.33093450  0.31777983  0.55661228     0.66230
H1000       H  0.35448529  0.30518823  0.00390666     0.15130
H1001       H  0.32592738  0.38489285  0.98671673     0.14840
N1002       N  0.34797061  0.37184000  0.93369981     0.73940
O1003       O  0.30946794  0.28988123  0.55830915    -0.39510
O1004       O  0.35162131  0.33018721  0.57924853    -0.39460
O1005       O  0.33161744  0.35599174  0.90861138    -0.40160
O1006       O  0.36209339  0.40110492  0.93410716    -0.40230
C1007       C  0.39685238  0.41460239  0.73665195    -0.12510
C1008       C  0.36919751  0.39269038  0.72000362     0.04500
C1009       C  0.35181494  0.36269690  0.73198459    -0.07800
C1010       C  0.36327758  0.35532132  0.75962431    -0.08540
C1011       C  0.39155420  0.37738449  0.77578870    -0.03090
C1012       C  0.40778741  0.40798775  0.76454472     0.03730
N1013       N  0.43501379  0.43327273  0.78103436     0.66230
H1014       H  0.41002266  0.43805014  0.72846212     0.15130
H1015       H  0.35020270  0.33201207  0.76811332     0.14840
N1016       N  0.32370198  0.33902364  0.71562753     0.73940
O1017       O  0.45766068  0.45149143  0.76409133    -0.39510
O1018       O  0.43251927  0.44293488  0.80951956    -0.39460
O1019       O  0.32464309  0.32951936  0.68647042    -0.40160
O1020       O  0.29990036  0.32313213  0.73230541    -0.40230
O1021       O  0.43762270  0.90691991  0.38974269    -0.80380
O1022       O  0.45217507  0.85914474  0.43702110    -0.80400
O1023       O  0.37082467  0.83454218  0.41325123    -0.80410
O1024       O  0.50221585  0.87163958  0.35939708    -0.80350
O1025       O  0.39142347  0.82210656  0.45488554    -0.80470
O1026       O  0.48505103  0.89598142  0.38846746    -0.80390
O1027       O  0.47536398  0.83647600  0.41218663    -0.80380
O1028       O  0.39055365  0.88078157  0.36912433    -0.80420
C1029       C  0.41290750  0.90615752  0.38129892     1.09310
C1030       C  0.47228443  0.85080502  0.43759636     1.09200
C1031       C  0.37242539  0.83007304  0.44457014     1.09330
C1032       C  0.50780504  0.89634161  0.37546896     1.09210
O1033       O  0.47193844  0.87712932  0.31585899    -0.80380
O1034       O  0.37327282  0.78733413  0.40160886    -0.80460
O1035       O  0.38899732  0.84148084  0.31447201    -0.80390
O1036       O  0.42546828  0.78915073  0.36831147    -0.80370
O1037       O  0.42293709  0.79291662  0.42132083    -0.80420
O1038       O  0.42634140  0.88973349  0.32097781    -0.80390
O1039       O  0.45150876  0.82637044  0.31669499    -0.80350
O1040       O  0.36652663  0.79265470  0.35127716    -0.80420
Co1041     Co  0.45400518  0.88963898  0.35574866     1.51530
Co1042     Co  0.41283397  0.82733643  0.41546600     1.51690
Co1043     Co  0.38288442  0.83711252  0.36255146     1.51570
Co1044     Co  0.46080814  0.83091522  0.36399893     1.51470
O1045       O  0.42821959  0.84504193  0.37079213    -1.42310
C1046       C  0.46493961  0.85088768  0.30125558     1.09240
C1047       C  0.35904097  0.77547411  0.37473401     1.09330
C1048       C  0.40318328  0.86868291  0.30458014     1.09270
C1049       C  0.42519709  0.77839595  0.39570706     1.09240
O1050       O  0.43579371  0.63768736  0.30241183    -0.80380
O1051       O  0.43799041  0.54866273  0.38267476    -0.80400
O1052       O  0.99145213  0.60916728  0.37428549    -0.80410
O1053       O  0.37528567  0.55096622  0.33593509    -0.80350
O1054       O  0.47957772  0.59168928  0.42344663    -0.80470
O1055       O  0.42216346  0.57987981  0.31707001    -0.80390
O1056       O  0.38869726  0.52274323  0.38206126    -0.80380
O1057       O  0.47696414  0.64248408  0.32971706    -0.80420
C1058       C  0.46409591  0.64484234  0.30299301     1.09310
C1059       C  0.41370583  0.52299025  0.37802735     1.09200
C1060       C  0.99766936  0.59935025  0.39963875     1.09330
C1061       C  0.39521780  0.55624477  0.31379219     1.09210
O1062       O  0.38006671  0.60213772  0.33661119    -0.80380
O1063       O  0.43897431  0.60954460  0.44965452    -0.80460
O1064       O  0.46777586  0.67298005  0.38962488    -0.80390
O1065       O  0.38361575  0.55803452  0.43638741    -0.80370
O1066       O  0.42206513  0.54904653  0.44816427    -0.80420
O1067       O  0.42361841  0.65202452  0.36322802    -0.80390
O1068       O  0.36839680  0.58963023  0.38808594    -0.80350
O1069       O  0.48373059  0.64363310  0.42975520    -0.80420
Co1070     Co  0.42530987  0.61649043  0.34177651     1.51530
Co1071     Co  0.43564767  0.57827116  0.41535468     1.51690
Co1072     Co  0.47558059  0.63825707  0.38081047     1.51570
Co1073     Co  0.38315543  0.55980523  0.38545372     1.51470
O1074       O  0.42879787  0.60058792  0.38289516    -1.42310
C1075       C  0.36285151  0.59790790  0.36124313     1.09240
C1076       C  0.46596834  0.63300387  0.45399304     1.09330
C1077       C  0.44447598  0.67410676  0.38068331     1.09270
C1078       C  0.39556469  0.54570016  0.45436774     1.09240
O1079       O  0.02101342  0.88893583  0.12200197    -0.80380
O1080       O  0.15061699  0.97316979  0.07841127    -0.80400
O1081       O  0.09679940  0.97918817  0.16754527    -0.80410
O1082       O  0.05426722  0.89785564  0.06171952    -0.80350
O1083       O  0.12355958  0.99339606  0.12280218    -0.80470
O1084       O  0.03636662  0.85545559  0.08665043    -0.80390
O1085       O  0.10542623  0.94969775  0.05448051    -0.80380
O1086       O  0.04125512  0.93704522  0.13937295    -0.80420
C1087       C  0.01860623  0.91265474  0.12653956     1.09310
C1088       C  0.13263049  0.97222005  0.05625241     1.09200
C1089       C  0.11031869  0.99891826  0.14648932     1.09330
C1090       C  0.03531427  0.86945590  0.06184620     1.09210
O1091       O  0.08695442  0.86833627  0.13572584    -0.80380
O1092       O  0.14279039  0.96886756  0.17274127    -0.80460
O1093       O  0.04148492  0.89091724  0.17963851    -0.80390
O1094       O  0.14261460  0.92034738  0.07512870    -0.80370
O1095       O  0.15276386  0.93402411  0.12745872    -0.80420
O1096       O  0.02616152  0.84556976  0.15380589    -0.80390
O1097       O  0.08982122  0.86790991  0.08185347    -0.80350
O1098       O  0.10279877  0.93095299  0.19409458    -0.80420
Co1099     Co  0.05621935  0.88108492  0.13045949     1.51530
Co1100     Co  0.13720731  0.96244451  0.12491641     1.51690
Co1101     Co  0.07303100  0.93345271  0.16405340     1.51570
Co1102     Co  0.09722928  0.91022127  0.07162549     1.51470
O1103       O  0.09122384  0.92437170  0.11908359    -1.42310
C1104       C  0.09144234  0.85732213  0.10908815     1.09240
C1105       C  0.12903673  0.95509073  0.19776141     1.09330
C1106       C  0.02472061  0.86125393  0.17859527     1.09270
C1107       C  0.15871555  0.92398607  0.10113254     1.09240
O1108       O  0.18514816  0.65221591  0.35003332    -0.80380
O1109       O  0.14529247  0.52062726  0.38999718    -0.80400
O1110       O  0.16359950  0.55604338  0.31450048    -0.80410
O1111       O  0.11270144  0.57965975  0.42538766    -0.80350
O1112       O  0.18631974  0.53554519  0.34110054    -0.80470
O1113       O  0.13474150  0.61406390  0.38766505    -0.80390
O1114       O  0.11870807  0.54310274  0.37643449    -0.80380
O1115       O  0.16340115  0.60982681  0.31871662    -0.80420
C1116       C  0.17210418  0.63817559  0.32259549     1.09310
C1117       C  0.11999022  0.51867472  0.38061990     1.09200
C1118       C  0.17076143  0.53543955  0.31627508     1.09330
C1119       C  0.11207102  0.59916564  0.40759028     1.09210
O1120       O  0.18563618  0.66234510  0.41866409    -0.80380
O1121       O  0.23416402  0.58537996  0.38396011    -0.80460
O1122       O  0.22979404  0.64302950  0.33838567    -0.80390
O1123       O  0.14588121  0.55472428  0.43907874    -0.80370
O1124       O  0.19411520  0.56746967  0.43517855    -0.80420
O1125       O  0.22840144  0.64831333  0.39263308    -0.80390
O1126       O  0.17284453  0.61772431  0.43992179    -0.80350
O1127       O  0.22983713  0.58950711  0.33066210    -0.80420
Co1128     Co  0.18285657  0.62903193  0.39079787     1.51530
Co1129     Co  0.18997501  0.55501272  0.38736663     1.51690
Co1130     Co  0.19506790  0.59873868  0.32788226     1.51570
Co1131     Co  0.14660727  0.58138307  0.40432168     1.51470
O1132       O  0.18105649  0.58901107  0.37472444    -1.42310
C1133       C  0.17757682  0.64573030  0.44349073     1.09240
C1134       C  0.24563458  0.59065699  0.35570340     1.09330
C1135       C  0.24284809  0.65726435  0.36593901     1.09270
C1136       C  0.16934119  0.55526724  0.45102672     1.09240
O1137       O  0.03889889  0.62214233  0.16775544    -0.80380
O1138       O  0.13525979  0.70362252  0.07193069    -0.80400
O1139       O  0.03190825  0.67900811  0.09759712    -0.80410
O1140       O  0.10037772  0.61836522  0.12828618    -0.80350
O1141       O  0.07084405  0.67866172  0.07238446    -0.80470
O1142       O  0.09187772  0.61912289  0.18088525    -0.80390
O1143       O  0.11731520  0.65582087  0.08089167    -0.80380
O1144       O  0.03967788  0.63147174  0.11493159    -0.80420
C1145       C  0.02684141  0.61431050  0.13854093     1.09310
C1146       C  0.13110943  0.67735912  0.06203370     1.09200
C1147       C  0.04322215  0.67498174  0.07125851     1.09330
C1148       C  0.09627658  0.60625123  0.15533176     1.09210
O1149       O  0.12443668  0.68339365  0.20386764    -0.80380
O1150       O  0.11030721  0.74053774  0.08814191    -0.80460
O1151       O  0.03452019  0.67120550  0.16192762    -0.80390
O1152       O  0.16609977  0.70648581  0.12444228    -0.80370
O1153       O  0.14306587  0.73329380  0.13674835    -0.80420
O1154       O  0.07301336  0.68693287  0.19588350    -0.80390
O1155       O  0.14826458  0.66466419  0.17368688    -0.80350
O1156       O  0.08211017  0.72445403  0.13276204    -0.80420
Co1157     Co  0.08283235  0.65437311  0.18471650     1.51530
Co1158     Co  0.10700173  0.70537328  0.10755712     1.51690
Co1159     Co  0.06226553  0.67672491  0.12355890     1.51570
Co1160     Co  0.13117393  0.66198421  0.12707126     1.51470
O1161       O  0.09804907  0.67219312  0.13970910    -1.42310
C1162       C  0.14486594  0.67575201  0.20143316     1.09240
C1163       C  0.09617450  0.74537132  0.11156991     1.09330
C1164       C  0.04505651  0.67857354  0.19116840     1.09270
C1165       C  0.16749273  0.73198829  0.13326143     1.09240
O1166       O  0.39908024  0.92852555  0.10480439    -0.80380
O1167       O  0.34790710  0.94272188  0.06004728    -0.80400
O1168       O  0.33874145  0.87768255  0.07688856    -0.80410
O1169       O  0.37904737  0.00438720  0.13467673    -0.80350
O1170       O  0.30409182  0.88139519  0.04699704    -0.80470
O1171       O  0.40106653  0.98285372  0.10768983    -0.80390
O1172       O  0.33326853  0.97300237  0.08645239    -0.80380
O1173       O  0.37450867  0.88482485  0.12784451    -0.80420
C1174       C  0.39893588  0.90495745  0.11427017     1.09310
C1175       C  0.34491041  0.96644392  0.06147733     1.09200
C1176       C  0.32278726  0.87156135  0.04981899     1.09330
C1177       C  0.40267850  0.00709270  0.11973768     1.09210
O1178       O  0.38890881  0.97792569  0.17973469    -0.80380
O1179       O  0.28746860  0.86894469  0.11121510    -0.80460
O1180       O  0.33531965  0.89031504  0.17580269    -0.80390
O1181       O  0.29074608  0.93279404  0.13538367    -0.80370
O1182       O  0.28649251  0.91716080  0.08366800    -0.80420
O1183       O  0.38595892  0.92315824  0.17450394    -0.80390
O1184       O  0.33868403  0.96199421  0.18200332    -0.80350
O1185       O  0.30987890  0.84296439  0.12771866    -0.80420
Co1186     Co  0.39190848  0.95234426  0.14011002     1.51530
Co1187     Co  0.32076925  0.90734899  0.08642693     1.51690
Co1188     Co  0.33471089  0.88656566  0.12692506     1.51570
Co1189     Co  0.33536954  0.96537072  0.13435343     1.51470
O1190       O  0.34726563  0.93189431  0.12597299    -1.42310
C1191       C  0.36554666  0.97557570  0.19548620     1.09240
C1192       C  0.28547730  0.84380696  0.12110217     1.09330
C1193       C  0.36237911  0.90256021  0.18895344     1.09270
C1194       C  0.27442910  0.92215444  0.10900498     1.09240
C1195       C  0.46019124  0.53302343  0.11536026    -0.12510
C1196       C  0.43398807  0.53603801  0.12188419     0.04500
C1197       C  0.43908277  0.56569301  0.13209139    -0.07800
C1198       C  0.46967725  0.59073262  0.13744454    -0.08540
C1199       C  0.49549792  0.58702649  0.13241702    -0.03090
C1200       C  0.49076789  0.55814009  0.11993544     0.03730
N1201       N  0.01641669  0.55377090  0.11171464     0.66230
H1202       H  0.45696432  0.51071788  0.10669821     0.15130
H1203       H  0.47332922  0.61332390  0.14569984     0.14840
N1204       N  0.41377798  0.57112836  0.13630795     0.73940
O1205       O  0.01326655  0.52718252  0.11237026    -0.39510
O1206       O  0.04063008  0.57514393  0.09946295    -0.39460
O1207       O  0.39818388  0.56312414  0.16216815    -0.40160
O1208       O  0.41169280  0.58986667  0.11838747    -0.40230
C1209       C  0.20794684  0.77168467  0.10115697    -0.12510
C1210       C  0.19745014  0.76121721  0.13259472     0.04500
C1211       C  0.21514645  0.77921569  0.16112258    -0.07800
C1212       C  0.24429246  0.80614564  0.15666424    -0.08540
C1213       C  0.25464646  0.81625058  0.12502045    -0.03090
C1214       C  0.23573581  0.79941751  0.09717056     0.03730
N1215       N  0.24422967  0.81033163  0.06470845     0.66230
H1216       H  0.19389401  0.75855493  0.07940726     0.15130
H1217       H  0.25882559  0.81980798  0.17790217     0.14840
N1218       N  0.20434869  0.77098234  0.19423238     0.73940
O1219       O  0.24488874  0.79258743  0.04183079    -0.39510
O1220       O  0.24388129  0.83432538  0.05737995    -0.39460
O1221       O  0.17673740  0.75010255  0.19929661    -0.40160
O1222       O  0.22181804  0.78632398  0.21890534    -0.40230
C1223       C  0.15051318  0.68136131  0.26303372    -0.12510
C1224       C  0.16006640  0.67432579  0.23268482     0.04500
C1225       C  0.17860998  0.66039999  0.23351248    -0.07800
C1226       C  0.18279364  0.64974127  0.26349354    -0.08540
C1227       C  0.17089394  0.65451033  0.29335184    -0.03090
C1228       C  0.15594370  0.67199030  0.29319802     0.03730
N1229       N  0.14413160  0.67862953  0.32276082     0.66230
H1230       H  0.13733913  0.69311753  0.26325615     0.15130
H1231       H  0.19554001  0.63753407  0.26357912     0.14840
N1232       N  0.19340482  0.65703365  0.20444121     0.73940
O1233       O  0.16152691  0.69037592  0.34825579    -0.39510
O1234       O  0.11882238  0.67852278  0.32148052    -0.39460
O1235       O  0.20745081  0.67952873  0.18612663    -0.40160
O1236       O  0.19691998  0.63386871  0.19999168    -0.40230
C1237       C  0.16940740  0.69421754  0.01554326    -0.12510
C1238       C  0.14289996  0.67077531  0.03051110     0.04500
C1239       C  0.12973055  0.63977419  0.01712973    -0.07800
C1240       C  0.14325213  0.63289574  0.49050633    -0.08540
C1241       C  0.16931748  0.65591279  0.47517065    -0.03090
C1242       C  0.18298214  0.68717790  0.48805357     0.03730
N1243       N  0.21127798  0.71150259  0.47499847     0.66230
H1244       H  0.18031132  0.71784155  0.02614668     0.15130
H1245       H  0.13226461  0.60891732  0.48111151     0.14840
N1246       N  0.10175583  0.61465624  0.02929175     0.73940
O1247       O  0.21816029  0.73948158  0.47904213    -0.39510
O1248       O  0.23133045  0.70566909  0.46324458    -0.39460
O1249       O  0.07793922  0.60100162  0.01039147    -0.40160
O1250       O  0.10355680  0.60057698  0.05331331    -0.40230
C1251       C  0.14575207  0.53916075  0.00519362    -0.12510
C1252       C  0.16556349  0.53831291  0.48104075     0.04500
C1253       C  0.17497339  0.01611054  0.48248789    -0.07800
C1254       C  0.16449754  0.99558996  0.50804429    -0.08540
C1255       C  0.14384358  0.99575859  0.03142822    -0.03090
C1256       C  0.13401858  0.51772985  0.02995807     0.03730
N1257       N  0.11183662  0.51841338  0.05241665     0.66230
H1258       H  0.13772925  0.55549519  0.00335335     0.15130
H1259       H  0.17154495  0.97841882  0.50884968     0.14840
N1260       N  0.19230927  0.01181965  0.45657754     0.73940
O1261       O  0.11039933  0.54280233  0.05682570    -0.39510
O1262       O  0.09089841  0.49388067  0.06434062    -0.39460
O1263       O  0.21923948  0.53356465  0.45050565    -0.40160
O1264       O  0.18277462  0.98499360  0.44331546    -0.40230
C1265       C  0.14823553  0.48170730  0.28971175    -0.12510
C1266       C  0.16402030  0.51407763  0.28700676     0.04500
C1267       C  0.16994893  0.52606049  0.25543907    -0.07800
C1268       C  0.15909911  0.50566951  0.22773040    -0.08540
C1269       C  0.14139236  0.97319604  0.22985761    -0.03090
C1270       C  0.13561120  0.96101656  0.26146461     0.03730
N1271       N  0.11660595  0.92833766  0.26561866     0.66230
H1272       H  0.14409912  0.97253701  0.31379784     0.15130
H1273       H  0.16388630  0.51588675  0.20397986     0.14840
N1274       N  0.18649793  0.55891988  0.25079498     0.73940
O1275       O  0.12536278  0.91565978  0.28562371    -0.39510
O1276       O  0.08861273  0.91394473  0.25540902    -0.39460
O1277       O  0.21198057  0.57670331  0.26604458    -0.40160
O1278       O  0.17814100  0.56946211  0.22789626    -0.40230
C1279       C  0.12558849  0.58070347  0.13785761    -0.12510
C1280       C  0.10150899  0.57993082  0.15682360     0.04500
C1281       C  0.08290527  0.55396874  0.17501099    -0.07800
C1282       C  0.08677406  0.52821876  0.17134911    -0.08540
C1283       C  0.10977624  0.52819356  0.15096955    -0.03090
C1284       C  0.13074333  0.55562865  0.13569311     0.03730
N1285       N  0.15800202  0.55910971  0.11960750     0.66230
H1286       H  0.14106721  0.60146593  0.12528230     0.15130
H1287       H  0.07130031  0.50787476  0.18449039     0.14840
N1288       N  0.05946598  0.55289112  0.19635728     0.73940
O1289       O  0.16906423  0.57658183  0.09584262    -0.39510
O1290       O  0.17426211  0.54967094  0.13290221    -0.39460
O1291       O  0.03230815  0.52949718  0.19448676    -0.40160
O1292       O  0.06728608  0.57201826  0.22105070    -0.40230
C1293       C  0.11501319  0.82820186  0.13079615    -0.12510
C1294       C  0.09375286  0.82921905  0.10912175     0.04500
C1295       C  0.07285393  0.80228346  0.08964157    -0.07800
C1296       C  0.07359090  0.77501086  0.09218237    -0.08540
C1297       C  0.09494638  0.77398591  0.11346154    -0.03090
C1298       C  0.11602949  0.80078948  0.13309546     0.03730
N1299       N  0.13855375  0.80071722  0.15502461     0.66230
H1300       H  0.13072436  0.84878942  0.14607302     0.15130
H1301       H  0.05761236  0.75449033  0.07696018     0.14840
N1302       N  0.04995618  0.80182424  0.06806247     0.73940
O1303       O  0.16474213  0.82504287  0.16035492    -0.39510
O1304       O  0.13130091  0.77753626  0.17173156    -0.39460
O1305       O  0.05821443  0.81543828  0.04141551    -0.40160
O1306       O  0.02149294  0.78277072  0.07210064    -0.40230
C1307       C  0.20043389  0.92224559  0.13261359    -0.12510
C1308       C  0.18615466  0.91931961  0.10164756     0.04500
C1309       C  0.19942971  0.91349506  0.07321547    -0.07800
C1310       C  0.22712616  0.91257091  0.07641698    -0.08540
C1311       C  0.24236516  0.91763847  0.10732858    -0.03090
C1312       C  0.22785857  0.92131518  0.13583660     0.03730
N1313       N  0.24057015  0.92433691  0.16841847     0.66230
H1314       H  0.19032387  0.92556009  0.15501596     0.15130
H1315       H  0.23760699  0.90941889  0.05423096     0.14840
N1316       N  0.18608339  0.90961595  0.04085199     0.73940
O1317       O  0.24310206  0.94547573  0.18885540    -0.39510
O1318       O  0.24475609  0.90322758  0.17833756    -0.39460
O1319       O  0.18520232  0.93192792  0.02891449    -0.40160
O1320       O  0.18131025  0.88668486  0.02192078    -0.40230
C1321       C  0.46066619  0.88167336  0.12390033    -0.12510
C1322       C  0.48817075  0.91019980  0.11987486     0.04500
C1323       C  0.48576353  0.93613865  0.11332206    -0.07800
C1324       C  0.45648665  0.93316692  0.11000650    -0.08540
C1325       C  0.42877995  0.90483591  0.11473258    -0.03090
C1326       C  0.43119023  0.87884682  0.12234525     0.03730
N1327       N  0.40453844  0.84993748  0.13016610     0.66230
H1328       H  0.46211337  0.86176388  0.13050909     0.15130
H1329       H  0.45568975  0.95383748  0.10522589     0.14840
N1330       N  0.01286035  0.96614579  0.11200921     0.73940
O1331       O  0.40018028  0.82498747  0.11582495    -0.39510
O1332       O  0.39062976  0.84856453  0.15662847    -0.39460
O1333       O  0.02770293  0.97423501  0.08566531    -0.40160
O1334       O  0.02346160  0.98348400  0.13807223    -0.40230
C1335       C  0.98596989  0.62241536  0.50327028    -0.12510
C1336       C  0.48041343  0.64332741  0.48727845     0.04500
C1337       C  0.99587215  0.67490450  0.49887779    -0.07800
C1338       C  0.01694027  0.68469725  0.02597283    -0.08540
C1339       C  0.02362256  0.66401987  0.04084910    -0.03090
C1340       C  0.00774144  0.63239360  0.02950140     0.03730
N1341       N  0.01385745  0.61026486  0.04361000     0.66230
H1342       H  0.97498005  0.59845365  0.49360470     0.15130
H1343       H  0.02825183  0.70864255  0.03564642     0.14840
N1344       N  0.49022651  0.69702403  0.48375750     0.73940
O1345       O  0.99229399  0.58235476  0.04510512    -0.39510
O1346       O  0.04151794  0.61714212  0.04924897    -0.39460
O1347       O  0.46489364  0.68809933  0.46837565    -0.40160
O1348       O  0.00924152  0.72581753  0.48827773    -0.40230
C1349       C  0.00224642  0.68023557  0.22174844    -0.12510
C1350       C  0.02402994  0.67047867  0.21938241     0.04500
C1351       C  0.02418064  0.65095215  0.24313801    -0.07800
C1352       C  0.00366947  0.64260499  0.26911063    -0.08540
C1353       C  0.48259628  0.65316256  0.27257395    -0.03090
C1354       C  0.48144627  0.67190366  0.24811303     0.03730
N1355       N  0.46059867  0.68373247  0.24995448     0.66230
H1356       H  0.00153834  0.69455731  0.20306076     0.15130
H1357       H  0.00441263  0.62763076  0.28699477     0.14840
N1358       N  0.04412942  0.63820856  0.24069779     0.73940
O1359       O  0.47004622  0.71117201  0.24222929    -0.39510
O1360       O  0.43171924  0.66529788  0.25188406    -0.39460
O1361       O  0.07216582  0.65471548  0.25040437    -0.40160
O1362       O  0.03218297  0.60910878  0.23718441    -0.40230
C1363       C  0.35762763  0.99575288  0.47526478    -0.12510
C1364       C  0.37875454  0.52739998  0.48217000     0.04500
C1365       C  0.38721315  0.53925441  0.01516449    -0.07800
C1366       C  0.37494390  0.51876702  0.04061162    -0.08540
C1367       C  0.35466728  0.98683339  0.03371640    -0.03090
C1368       C  0.34508574  0.97519516  0.50066386     0.03730
N1369       N  0.32236968  0.94308091  0.49245929     0.66230
H1370       H  0.35138882  0.98695647  0.44974959     0.15130
H1371       H  0.38171160  0.52773693  0.06598252     0.14840
N1372       N  0.40829136  0.57173587  0.02315905     0.73940
O1373       O  0.32195008  0.93092939  0.46422108    -0.39510
O1374       O  0.29982670  0.92833798  0.51110837    -0.39460
O1375       O  0.40595047  0.59186935  0.00805430    -0.40160
O1376       O  0.42646898  0.58034165  0.04808497    -0.40230
C1377       C  0.38627539  0.50760156  0.28511357    -0.12510
C1378       C  0.38634267  0.53549302  0.28351599     0.04500
C1379       C  0.37550564  0.54139007  0.25404681    -0.07800
C1380       C  0.36858672  0.52092100  0.22608794    -0.08540
C1381       C  0.37055490  0.99407723  0.22707527    -0.03090
C1382       C  0.37682828  0.98599807  0.25774035     0.03730
N1383       N  0.36972214  0.95495634  0.26268600     0.66230
H1384       H  0.39198947  0.50193056  0.30845981     0.15130
H1385       H  0.36127743  0.52581917  0.20322154     0.14840
N1386       N  0.36998596  0.56683235  0.25208914     0.73940
O1387       O  0.38124943  0.94973970  0.28744666    -0.39510
O1388       O  0.34623355  0.93245222  0.24793762    -0.39460
O1389       O  0.38658824  0.59218781  0.26847795    -0.40160
O1390       O  0.34924026  0.56453822  0.23246705    -0.40230
C1391       C  0.05336350  0.62352468  0.38996960    -0.12510
C1392       C  0.02653191  0.59879357  0.40251973     0.04500
C1393       C  0.02927120  0.57766619  0.42205280    -0.07800
C1394       C  0.05778950  0.57906588  0.42362431    -0.08540
C1395       C  0.08416808  0.60224722  0.40855873    -0.03090
C1396       C  0.08275539  0.62730372  0.39598508     0.03730
N1397       N  0.10981530  0.65798182  0.39538049     0.66230
H1398       H  0.05165730  0.64171955  0.37859605     0.15130
H1399       H  0.05924893  0.56182006  0.43717844     0.14840
N1400       N  0.00420611  0.55528716  0.44109417     0.73940
O1401       O  0.10699919  0.68003581  0.38580190    -0.39510
O1402       O  0.13347822  0.66493108  0.41295182    -0.39460
O1403       O  0.47709801  0.53883421  0.42876462    -0.40160
O1404       O  0.00995346  0.54941920  0.46922704    -0.40230
C1405       C  0.30143718  0.62047535  0.36965083    -0.12510
C1406       C  0.27673377  0.59528068  0.35187406     0.04500
C1407       C  0.28103164  0.57200168  0.33603569    -0.07800
C1408       C  0.31001390  0.57435058  0.33865998    -0.08540
C1409       C  0.33433974  0.59885808  0.35746395    -0.03090
C1410       C  0.33025722  0.62238497  0.37306990     0.03730
N1411       N  0.35448374  0.64767896  0.39304668     0.66230
H1412       H  0.29766249  0.63778686  0.38249787     0.15130
H1413       H  0.31325800  0.55624313  0.32695458     0.14840
N1414       N  0.25574995  0.54468342  0.31964745     0.73940
O1415       O  0.35697223  0.67409968  0.39402438    -0.39510
O1416       O  0.37011744  0.64263178  0.41352308    -0.39460
O1417       O  0.24069347  0.54716211  0.29631396    -0.40160
O1418       O  0.25164629  0.51824393  0.32489892    -0.40230
C1419       C  0.03219080  0.85923370  0.50188568    -0.12510
C1420       C  0.01587335  0.85471117  0.03137425     0.04500
C1421       C  0.48439368  0.84679018  0.02950504    -0.07800
C1422       C  0.47115656  0.84636511  0.99861078    -0.08540
C1423       C  0.48809050  0.85250129  0.46938704    -0.03090
C1424       C  0.01860502  0.85765935  0.47106165     0.03730
N1425       N  0.03695659  0.86355094  0.44218159     0.66230
H1426       H  0.05651585  0.86587533  0.50305345     0.15130
H1427       H  0.44717044  0.84075113  0.99722152     0.14840
N1428       N  0.46583164  0.83983395  0.05849420     0.73940
O1429       O  0.06261646  0.88868724  0.44111492    -0.39510
O1430       O  0.03104522  0.84145827  0.42137919    -0.39460
O1431       O  0.94104727  0.84077829  0.05821090    -0.40160
O1432       O  0.47161313  0.82849021  0.08263447    -0.40230
C1433       C  0.99105080  0.83187974  0.26163472    -0.12510
C1434       C  0.47609623  0.84913238  0.26747657     0.04500
C1435       C  0.47275964  0.86449377  0.24113088    -0.07800
C1436       C  0.98424920  0.86252028  0.21021446    -0.08540
C1437       C  0.00205774  0.84829528  0.20523008    -0.03090
C1438       C  0.00503306  0.83202004  0.23113028     0.03730
N1439       N  0.02348534  0.81738720  0.22783284     0.66230
H1440       H  0.99346482  0.81975231  0.28170305     0.15130
H1441       H  0.98276275  0.87591966  0.19090308     0.14840
N1442       N  0.46058490  0.88471457  0.24577013     0.73940
O1443       O  0.03352695  0.81129192  0.25318609    -0.39510
O1444       O  0.02811427  0.80854184  0.19977945    -0.39460
O1445       O  0.47556747  0.90892600  0.26448824    -0.40160
O1446       O  0.44199518  0.88390015  0.22418526    -0.40230
C1447       C  0.44060008  0.96413676  0.37857844    -0.12510
C1448       C  0.41209938  0.93575064  0.37931334     0.04500
C1449       C  0.38439230  0.93639587  0.37271993    -0.07800
C1450       C  0.38565129  0.96505760  0.37222719    -0.08540
C1451       C  0.41402393  0.99328972  0.37270244    -0.03090
C1452       C  0.44177864  0.99213697  0.37184394     0.03730
N1453       N  0.47044941  0.51787187  0.36113229     0.66230
H1454       H  0.46213918  0.96389705  0.37975154     0.15130
H1455       H  0.36406963  0.96513901  0.37016634     0.14840
N1456       N  0.35502744  0.90875592  0.36479106     0.73940
O1457       O  0.49606000  0.51977886  0.36772470    -0.39510
O1458       O  0.46978389  0.53473649  0.33946655    -0.39460
O1459       O  0.33067060  0.90603851  0.37742468    -0.40160
O1460       O  0.35225304  0.89251957  0.33871273    -0.40230
C1461       C  0.43016034  0.70692069  0.41650410    -0.12510
C1462       C  0.44301771  0.70252349  0.38732090     0.04500
C1463       C  0.45246602  0.72446208  0.36308872    -0.07800
C1464       C  0.44660674  0.74884716  0.36754435    -0.08540
C1465       C  0.43240455  0.75289080  0.39597441    -0.03090
C1466       C  0.42558256  0.73241588  0.42166708     0.03730
N1467       N  0.41395933  0.73665711  0.45271513     0.66230
H1468       H  0.42337409  0.69027156  0.43528162     0.15130
H1469       H  0.45367908  0.76520036  0.34835169     0.14840
N1470       N  0.46774943  0.72231467  0.33367218     0.73940
O1471       O  0.39355457  0.71326132  0.46688473    -0.39510
O1472       O  0.42852643  0.76240888  0.46912282    -0.39460
O1473       O  0.48663119  0.71263842  0.33472245    -0.40160
O1474       O  0.96579451  0.73413193  0.30771839    -0.40230
C1475       C  0.03684865  0.95296109  0.38867053    -0.12510
C1476       C  0.03760273  0.92678865  0.37535826     0.04500
C1477       C  0.06608693  0.93124010  0.36315560    -0.07800
C1478       C  0.09273866  0.96134171  0.36543728    -0.08420
C1479       C  0.09137310  0.98739847  0.37798750    -0.03090
C1480       C  0.06310054  0.98266740  0.39050446     0.03730
N1481       N  0.06127539  0.50689180  0.40872856     0.66230
H1482       H  0.01569437  0.95043714  0.39896853     0.15130
H1483       H  0.11461612  0.96443076  0.35729058     0.14840
N1484       N  0.06863816  0.90594779  0.34854278     0.73940
O1485       O  0.03828959  0.51026752  0.40370406    -0.39510
O1486       O  0.07698261  0.51821387  0.43535980    -0.39460
O1487       O  0.05247993  0.89098192  0.32301059    -0.40160
O1488       O  0.09127527  0.90290777  0.35667521    -0.40230
C1489       C  0.29030228  0.69762448  0.39728711    -0.12510
C1490       C  0.27419251  0.68593530  0.36682318     0.04500
C1491       C  0.28777435  0.70278923  0.33846093    -0.07800
C1492       C  0.31671158  0.73050860  0.34132284    -0.08540
C1493       C  0.33212072  0.74294279  0.37208050    -0.03090
C1494       C  0.31868336  0.72578106  0.40036970     0.03730
N1495       N  0.33249719  0.73709613  0.43277303     0.66230
H1496       H  0.28046818  0.68509925  0.41929492     0.15130
H1497       H  0.32612407  0.74350487  0.31951611     0.14840
N1498       N  0.27140873  0.69395605  0.30718890     0.73940
O1499       O  0.31640328  0.73860439  0.45608281    -0.39510
O1500       O  0.35848364  0.73991561  0.43940435    -0.39460
O1501       O  0.24658351  0.69458956  0.30434908    -0.40160
O1502       O  0.28498814  0.69250810  0.28143517    -0.40230
C1503       C  0.34804503  0.82241459  0.49971970    -0.12510
C1504       C  0.35321855  0.83570189  0.46898237     0.04500
C1505       C  0.34350272  0.85732815  0.46412104    -0.07800
C1506       C  0.33160115  0.86707210  0.49036703    -0.08540
C1507       C  0.32909997  0.85586173  0.02162764    -0.03090
C1508       C  0.33603495  0.83219693  0.02591442     0.03730
N1509       N  0.33092037  0.81776745  0.05660814     0.66230
H1510       H  0.35449435  0.80519628  0.50390952     0.15130
H1511       H  0.32592078  0.88488864  0.48671360     0.14840
N1512       N  0.34796608  0.87183729  0.43369746     0.73940
O1513       O  0.30946514  0.78986230  0.05829161    -0.39510
O1514       O  0.35159437  0.83017915  0.07925682    -0.39460
O1515       O  0.33161248  0.85598815  0.40860961    -0.40160
O1516       O  0.36208874  0.90110216  0.43410374    -0.40230
C1517       C  0.39684987  0.91460112  0.23665138    -0.12510
C1518       C  0.36919423  0.89268927  0.22000420     0.04500
C1519       C  0.35181205  0.86269581  0.23198505    -0.07800
C1520       C  0.36327542  0.85532025  0.25962408    -0.08540
C1521       C  0.39155265  0.87738342  0.27578747    -0.03090
C1522       C  0.40778590  0.90798652  0.26454318     0.03730
N1523       N  0.43501332  0.93327144  0.28103151     0.66230
H1524       H  0.41002015  0.93804882  0.22846137     0.15130
H1525       H  0.35020072  0.83201105  0.26811327     0.14840
N1526       N  0.32369906  0.83902253  0.21562815     0.73940
O1527       O  0.45765956  0.95148938  0.26408727    -0.39510
O1528       O  0.43252039  0.94293451  0.30951687    -0.39460
O1529       O  0.32464032  0.82951737  0.18647150    -0.40160
O1530       O  0.29989720  0.82313181  0.23230602    -0.40230
O1531       O  0.43762359  0.90691889  0.88974546    -0.80380
O1532       O  0.45217573  0.85914168  0.93702322    -0.80400
O1533       O  0.37082493  0.83454105  0.91325234    -0.80410
O1534       O  0.50221543  0.87163708  0.85939772    -0.80350
O1535       O  0.39142288  0.82210484  0.95488694    -0.80470
O1536       O  0.48505186  0.89597967  0.88846919    -0.80390
O1537       O  0.47536357  0.83647276  0.91218568    -0.80380
O1538       O  0.39055473  0.88078109  0.86912646    -0.80420
C1539       C  0.41290857  0.90615679  0.88130154     1.09310
C1540       C  0.47228599  0.85080296  0.93759539     1.09200
C1541       C  0.37242504  0.83007156  0.94457122     1.09330
C1542       C  0.50780548  0.89633914  0.87547026     1.09210
O1543       O  0.47193846  0.87712848  0.81586140    -0.80380
O1544       O  0.37327259  0.78733300  0.90160971    -0.80460
O1545       O  0.38899820  0.84148121  0.81447323    -0.80390
O1546       O  0.42546709  0.78914836  0.86831180    -0.80370
O1547       O  0.42293645  0.79291424  0.92132141    -0.80420
O1548       O  0.42634229  0.88973382  0.82098004    -0.80390
O1549       O  0.45150713  0.82636920  0.81669553    -0.80350
O1550       O  0.36652684  0.79265417  0.85127799    -0.80420
Co1551     Co  0.45400575  0.88963810  0.85575098     1.51530
Co1552     Co  0.41283410  0.82733463  0.91546756     1.51690
Co1553     Co  0.38288494  0.83711199  0.86255274     1.51570
Co1554     Co  0.46080718  0.83091288  0.86399902     1.51470
O1555       O  0.42821976  0.84504079  0.87079382    -1.42310
C1556       C  0.46493910  0.85088705  0.80125726     1.09240
C1557       C  0.35904080  0.77547338  0.87473473     1.09330
C1558       C  0.40318431  0.86868351  0.80458179     1.09270
C1559       C  0.42519618  0.77839359  0.89570743     1.09240
O1560       O  0.43579510  0.63768796  0.80241373    -0.80380
O1561       O  0.43799188  0.54866186  0.88267687    -0.80400
O1562       O  0.99145290  0.60916542  0.87428641    -0.80410
O1563       O  0.37528688  0.55096526  0.83593601    -0.80350
O1564       O  0.47957888  0.59168904  0.92344819    -0.80470
O1565       O  0.42216427  0.57987951  0.81707006    -0.80390
O1566       O  0.38869868  0.52274242  0.88206194    -0.80380
O1567       O  0.47696522  0.64248175  0.82971685    -0.80420
C1568       C  0.46409685  0.64484135  0.80299370     1.09310
C1569       C  0.41370735  0.52298947  0.87802889     1.09200
C1570       C  0.99767016  0.59934893  0.89964010     1.09330
C1571       C  0.39521876  0.55624405  0.81379278     1.09210
O1572       O  0.38006768  0.60213683  0.83661220    -0.80380
O1573       O  0.43897493  0.60954462  0.94965451    -0.80460
O1574       O  0.46777832  0.67297975  0.88962337    -0.80390
O1575       O  0.38361709  0.55803372  0.93638815    -0.80370
O1576       O  0.42206693  0.54904673  0.94816602    -0.80420
O1577       O  0.42361887  0.65202310  0.86323058    -0.80390
O1578       O  0.36839822  0.58962933  0.88808698    -0.80350
O1579       O  0.48373149  0.64363258  0.92975511    -0.80420
Co1580     Co  0.42531077  0.61648981  0.84177764     1.51530
Co1581     Co  0.43564875  0.57827062  0.91535586     1.51690
Co1582     Co  0.47558193  0.63825580  0.88081031     1.51570
Co1583     Co  0.38315678  0.55980430  0.88545449     1.51470
O1584       O  0.42879923  0.60058672  0.88289548    -1.42310
C1585       C  0.36285264  0.59790685  0.86124427     1.09240
C1586       C  0.46596895  0.63300391  0.95399285     1.09330
C1587       C  0.44447771  0.67410609  0.88068385     1.09270
C1588       C  0.39556616  0.54569973  0.95436882     1.09240
O1589       O  0.02101663  0.88894234  0.62201002    -0.80380
O1590       O  0.15061639  0.97316934  0.57840898    -0.80400
O1591       O  0.09680855  0.97919343  0.66754800    -0.80410
O1592       O  0.05426528  0.89785653  0.56171815    -0.80350
O1593       O  0.12356497  0.99340014  0.62280254    -0.80470
O1594       O  0.03636413  0.85545899  0.58665493    -0.80390
O1595       O  0.10542438  0.94969848  0.55448126    -0.80380
O1596       O  0.04126241  0.93705289  0.63937756    -0.80420
C1597       C  0.01861134  0.91266234  0.62654815     1.09310
C1598       C  0.13262845  0.97222077  0.55625263     1.09200
C1599       C  0.11032707  0.99892363  0.64649186     1.09330
C1600       C  0.03530974  0.86945767  0.56185010     1.09210
O1601       O  0.08695611  0.86833884  0.63572464    -0.80380
O1602       O  0.14279617  0.96886971  0.67273964    -0.80460
O1603       O  0.04149076  0.89092314  0.67964298    -0.80390
O1604       O  0.14261314  0.92034653  0.57512665    -0.80370
O1605       O  0.15276430  0.93402410  0.62745626    -0.80420
O1606       O  0.02616555  0.84557516  0.65381035    -0.80390
O1607       O  0.08981785  0.86790957  0.58185189    -0.80350
O1608       O  0.10280562  0.93095487  0.69409337    -0.80420
Co1609     Co  0.05622195  0.88108927  0.63046229     1.51530
Co1610     Co  0.13721024  0.96244637  0.62491499     1.51690
Co1611     Co  0.07303770  0.93345758  0.66405549     1.51570
Co1612     Co  0.09722766  0.91022172  0.57162475     1.51470
O1613       O  0.09122591  0.92437464  0.61908361    -1.42310
C1614       C  0.09144099  0.85732286  0.60908650     1.09240
C1615       C  0.12904369  0.95509226  0.69775994     1.09330
C1616       C  0.02472596  0.86125980  0.67859996     1.09270
C1617       C  0.15871487  0.92398533  0.60113002     1.09240
O1618       O  0.18514734  0.65221327  0.85003265    -0.80380
O1619       O  0.14529485  0.52062509  0.88999659    -0.80400
O1620       O  0.16360183  0.55604190  0.81449932    -0.80410
O1621       O  0.11270124  0.57965587  0.92538682    -0.80350
O1622       O  0.18632256  0.53554463  0.84110027    -0.80470
O1623       O  0.13474121  0.61406066  0.88766471    -0.80390
O1624       O  0.11870936  0.54309942  0.87643392    -0.80380
O1625       O  0.16340173  0.60982445  0.81871540    -0.80420
C1626       C  0.17210386  0.63817301  0.82259457     1.09310
C1627       C  0.11999206  0.51867178  0.88061964     1.09200
C1628       C  0.17076435  0.53543861  0.81627448     1.09330
C1629       C  0.11207080  0.59916209  0.90758992     1.09210
O1630       O  0.18563549  0.66234239  0.91866363    -0.80380
O1631       O  0.23416575  0.58538012  0.88396008    -0.80460
O1632       O  0.22979435  0.64302854  0.83838534    -0.80390
O1633       O  0.14588303  0.55472176  0.93907811    -0.80370
O1634       O  0.19411751  0.56746907  0.93517756    -0.80420
O1635       O  0.22840139  0.64831174  0.89263272    -0.80390
O1636       O  0.17284397  0.61772165  0.93992143    -0.80350
O1637       O  0.22983918  0.58950696  0.83066207    -0.80420
Co1638     Co  0.18285646  0.62902954  0.89079737     1.51530
Co1639     Co  0.18997715  0.55501183  0.88736611     1.51690
Co1640     Co  0.19506917  0.59873740  0.82788165     1.51570
Co1641     Co  0.14660767  0.58138012  0.90432108     1.51470
O1642       O  0.18105723  0.58900920  0.87472376    -1.42310
C1643       C  0.17757614  0.64572763  0.94349030     1.09240
C1644       C  0.24563647  0.59065701  0.85570354     1.09330
C1645       C  0.24284807  0.65726332  0.86593878     1.09270
C1646       C  0.16934365  0.55526550  0.95102562     1.09240
O1647       O  0.03889962  0.62214416  0.66775643    -0.80380
O1648       O  0.13526012  0.70362430  0.57193097    -0.80400
O1649       O  0.03190802  0.67900885  0.59759760    -0.80410
O1650       O  0.10037615  0.61836567  0.62828554    -0.80350
O1651       O  0.07084437  0.67866351  0.57238492    -0.80470
O1652       O  0.09187819  0.61912387  0.68088498    -0.80390
O1653       O  0.11731457  0.65582237  0.58089136    -0.80380
O1654       O  0.03967799  0.63147293  0.61493250    -0.80420
C1655       C  0.02684134  0.61431255  0.63854235     1.09310
C1656       C  0.13110936  0.67736084  0.56203372     1.09200
C1657       C  0.04322213  0.67498280  0.57125899     1.09330
C1658       C  0.09627644  0.60625200  0.65533121     1.09210
O1659       O  0.12443780  0.68339474  0.70386742    -0.80380
O1660       O  0.11030791  0.74053972  0.58814246    -0.80460
O1661       O  0.03452094  0.67120726  0.66192835    -0.80390
O1662       O  0.16610010  0.70648643  0.62444217    -0.80370
O1663       O  0.14306725  0.73329554  0.63674819    -0.80420
O1664       O  0.07301428  0.68693431  0.69588406    -0.80390
O1665       O  0.14826443  0.66466414  0.67368628    -0.80350
O1666       O  0.08211005  0.72445532  0.63276196    -0.80420
Co1667     Co  0.08283317  0.65437448  0.68471679     1.51530
Co1668     Co  0.10700241  0.70537514  0.60755752     1.51690
Co1669     Co  0.06226568  0.67672616  0.62355923     1.51570
Co1670     Co  0.13117349  0.66198483  0.62707081     1.51470
O1671       O  0.09804954  0.67219477  0.63970936    -1.42310
C1672       C  0.14486631  0.67575209  0.70143278     1.09240
C1673       C  0.09617446  0.74537279  0.61157003     1.09330
C1674       C  0.04505737  0.67857499  0.69116911     1.09270
C1675       C  0.16749381  0.73198936  0.63326117     1.09240
O1676       O  0.39908498  0.92853136  0.60480254    -0.80380
O1677       O  0.34790778  0.94272356  0.56004741    -0.80400
O1678       O  0.33874376  0.87768494  0.57688731    -0.80410
O1679       O  0.37904658  0.00438828  0.63467930    -0.80350
O1680       O  0.30409306  0.88139690  0.54699688    -0.80470
O1681       O  0.40106661  0.98285662  0.60769111    -0.80390
O1682       O  0.33326912  0.97300375  0.58645321    -0.80380
O1683       O  0.37451369  0.88482949  0.62784065    -0.80420
C1684       C  0.39894066  0.90496262  0.61426573     1.09310
C1685       C  0.34491082  0.96644545  0.56147781     1.09200
C1686       C  0.32278901  0.87156364  0.54981812     1.09330
C1687       C  0.40267832  0.00709482  0.61974092     1.09210
O1688       O  0.38890857  0.97792544  0.67973570    -0.80380
O1689       O  0.28747077  0.86894544  0.61121520    -0.80460
O1690       O  0.33532337  0.89031621  0.67580170    -0.80390
O1691       O  0.29074581  0.93279375  0.63538335    -0.80370
O1692       O  0.28649326  0.91716139  0.58366763    -0.80420
O1693       O  0.38596250  0.92315957  0.67450281    -0.80390
O1694       O  0.33868354  0.96199344  0.68200390    -0.80350
O1695       O  0.30988249  0.84296589  0.62771699    -0.80420
Co1696     Co  0.39191029  0.95234655  0.64010992     1.51530
Co1697     Co  0.32077054  0.90735033  0.58642688     1.51690
Co1698     Co  0.33471400  0.88656755  0.62692394     1.51570
Co1699     Co  0.33536941  0.96537102  0.63435416     1.51470
O1700       O  0.34726714  0.93189570  0.62597279    -1.42310
C1701       C  0.36554613  0.97557490  0.69548699     1.09240
C1702       C  0.28548025  0.84380778  0.62110154     1.09330
C1703       C  0.36238280  0.90256130  0.68895241     1.09270
C1704       C  0.27442924  0.92215453  0.60900432     1.09240
C1705       C  0.46019181  0.53302273  0.61537953    -0.12510
C1706       C  0.43398810  0.53603963  0.62189106     0.04500
C1707       C  0.43908218  0.56569681  0.63208765    -0.07800
C1708       C  0.46967669  0.59073789  0.63743693    -0.08540
C1709       C  0.49549724  0.58702979  0.63241962    -0.03090
C1710       C  0.49076751  0.55813992  0.61995455     0.03730
N1711       N  0.01641725  0.55376794  0.61175247     0.66230
H1712       H  0.45696672  0.51071531  0.60672824     0.15130
H1713       H  0.47332872  0.61333115  0.64568314     0.14840
N1714       N  0.41377698  0.57113233  0.63629942     0.73940
O1715       O  0.01327832  0.52718792  0.61246607    -0.39510
O1716       O  0.04061946  0.57512442  0.59946600    -0.39460
O1717       O  0.39817658  0.56312327  0.66215517    -0.40160
O1718       O  0.41169761  0.58987561  0.61838171    -0.40230
C1719       C  0.20794833  0.77168601  0.60115674    -0.12510
C1720       C  0.19745186  0.76121802  0.63259439     0.04500
C1721       C  0.21514920  0.77921562  0.66112217    -0.07800
C1722       C  0.24429570  0.80614519  0.65666376    -0.08540
C1723       C  0.25464942  0.81625078  0.62502003    -0.03090
C1724       C  0.23573783  0.79941850  0.59717033     0.03730
N1725       N  0.24423109  0.81033320  0.56470837     0.66230
H1726       H  0.19389487  0.75855702  0.57940709     0.15130
H1727       H  0.25882925  0.81980692  0.67790169     0.14840
N1728       N  0.20435185  0.77098181  0.69423198     0.73940
O1729       O  0.24488900  0.79258908  0.54182983    -0.39510
O1730       O  0.24388287  0.83432730  0.55738103    -0.39460
O1731       O  0.17673960  0.75010442  0.69929647    -0.40160
O1732       O  0.22182263  0.78632114  0.71890484    -0.40230
C1733       C  0.15051244  0.68135922  0.76303353    -0.12510
C1734       C  0.16006601  0.67432448  0.73268441     0.04500
C1735       C  0.17860933  0.66039836  0.73351165    -0.07800
C1736       C  0.18279287  0.64973911  0.76349246    -0.08540
C1737       C  0.17089314  0.65450773  0.79335099    -0.03090
C1738       C  0.15594269  0.67198752  0.79319753     0.03730
N1739       N  0.14413013  0.67862592  0.82276042     0.66230
H1740       H  0.13733840  0.69311545  0.76325637     0.15130
H1741       H  0.19553928  0.63753194  0.76357768     0.14840
N1742       N  0.19340415  0.65703231  0.70444021     0.73940
O1743       O  0.16152547  0.69037283  0.84825531    -0.39510
O1744       O  0.11882032  0.67851802  0.82148024    -0.39460
O1745       O  0.20745026  0.67952763  0.68612595    -0.40160
O1746       O  0.19691907  0.63386726  0.69999015    -0.40230
C1747       C  0.16940750  0.69421978  0.51554358    -0.12510
C1748       C  0.14290015  0.67077731  0.53051129     0.04500
C1749       C  0.12973102  0.63977628  0.51712990    -0.07800
C1750       C  0.14325130  0.63289343  0.99050590    -0.08540
C1751       C  0.16931683  0.65591026  0.97517024    -0.03090
C1752       C  0.18298186  0.68717537  0.98805325     0.03730
N1753       N  0.21127797  0.71149978  0.97499828     0.66230
H1754       H  0.18031114  0.71784377  0.52614700     0.15130
H1755       H  0.13226349  0.60891502  0.98111096     0.14840
N1756       N  0.10175607  0.61465827  0.52929143     0.73940
O1757       O  0.21816082  0.73947892  0.97904209    -0.39510
O1758       O  0.23133014  0.70566583  0.96324441    -0.39460
O1759       O  0.07793948  0.60100441  0.51039106    -0.40160
O1760       O  0.10355662  0.60057836  0.55331258    -0.40230
C1761       C  0.14574494  0.53915924  0.50519322    -0.12510
C1762       C  0.16556722  0.53831139  0.98103926     0.04500
C1763       C  0.17497408  0.01610660  0.98248457    -0.07800
C1764       C  0.16449801  0.99558616  0.00804130    -0.08540
C1765       C  0.14384013  0.99575936  0.53142915    -0.03090
C1766       C  0.13401150  0.51772787  0.52995757     0.03730
N1767       N  0.11182798  0.51840969  0.55241579     0.66230
H1768       H  0.13771993  0.55549183  0.50335180     0.15130
H1769       H  0.17154280  0.97841298  0.00884543     0.14840
N1770       N  0.19230707  0.01181341  0.95657251     0.73940
O1771       O  0.11039255  0.54279946  0.55682765    -0.39510
O1772       O  0.09088769  0.49387619  0.56433730    -0.39460
O1773       O  0.21923644  0.53355754  0.95049686    -0.40160
O1774       O  0.18277079  0.98498646  0.94331211    -0.40230
C1775       C  0.14823700  0.48170701  0.78970994    -0.12510
C1776       C  0.16402471  0.51407696  0.78700661     0.04500
C1777       C  0.16995802  0.52606054  0.75543900    -0.07800
C1778       C  0.15911099  0.50567000  0.72773020    -0.08540
C1779       C  0.14140032  0.97319670  0.72985628    -0.03090
C1780       C  0.13561413  0.96101662  0.76146341     0.03730
N1781       N  0.11660472  0.92833811  0.76561649     0.66230
H1782       H  0.14409518  0.97253380  0.81380285     0.15130
H1783       H  0.16390251  0.51588844  0.70397877     0.14840
N1784       N  0.18650750  0.55891995  0.75079568     0.73940
O1785       O  0.12535852  0.91565719  0.78562112    -0.39510
O1786       O  0.08861127  0.91394942  0.75540805    -0.39460
O1787       O  0.21198974  0.57670297  0.76604599    -0.40160
O1788       O  0.17815151  0.56946257  0.72789647    -0.40230
C1789       C  0.12559075  0.58070661  0.63785593    -0.12510
C1790       C  0.10151156  0.57993315  0.65682341     0.04500
C1791       C  0.08291196  0.55397239  0.67501435    -0.07800
C1792       C  0.08678618  0.52822565  0.67135723    -0.08540
C1793       C  0.10978563  0.52819971  0.65097385    -0.03090
C1794       C  0.13074834  0.55563339  0.63569251     0.03730
N1795       N  0.15800535  0.55911472  0.61960264     0.66230
H1796       H  0.14106655  0.60146815  0.62527773     0.15130
H1797       H  0.07131591  0.50788308  0.68450236     0.14840
N1798       N  0.05946772  0.55289017  0.69635564     0.73940
O1799       O  0.16906388  0.57658571  0.59583641    -0.39510
O1800       O  0.17426765  0.54967690  0.63289419    -0.39460
O1801       O  0.03231244  0.52949209  0.69448236    -0.40160
O1802       O  0.06728134  0.57201717  0.72104840    -0.40230
C1803       C  0.11501475  0.82820435  0.63079171    -0.12510
C1804       C  0.09375131  0.82921967  0.60912039     0.04500
C1805       C  0.07284945  0.80228239  0.58964427    -0.07800
C1806       C  0.07358686  0.77501004  0.59218577    -0.08540
C1807       C  0.09494570  0.77398707  0.61346158    -0.03090
C1808       C  0.11603146  0.80079227  0.63309168     0.03730
N1809       N  0.13855839  0.80072170  0.65501811     0.66230
H1810       H  0.13072802  0.84879317  0.64606575     0.15130
H1811       H  0.05760622  0.75448823  0.57696649     0.14840
N1812       N  0.04994880  0.80182145  0.56806835     0.73940
O1813       O  0.16474716  0.82504770  0.66034478    -0.39510
O1814       O  0.13130755  0.77754226  0.67172685    -0.39460
O1815       O  0.05820357  0.81543406  0.54142033    -0.40160
O1816       O  0.02148631  0.78276748  0.57211004    -0.40230
C1817       C  0.20043246  0.92224358  0.63261135    -0.12510
C1818       C  0.18615392  0.91931850  0.60164503     0.04500
C1819       C  0.19942999  0.91349515  0.57321313    -0.07800
C1820       C  0.22712670  0.91257139  0.57641517    -0.08540
C1821       C  0.24236506  0.91763824  0.60732714    -0.03090
C1822       C  0.22785743  0.92131372  0.63583487     0.03730
N1823       N  0.24056825  0.92433479  0.66841700     0.66230
H1824       H  0.19032170  0.92555706  0.65501365     0.15130
H1825       H  0.23760829  0.90942026  0.55422931     0.14840
N1826       N  0.18608445  0.90961688  0.54084939     0.73940
O1827       O  0.24309887  0.94547265  0.68885454    -0.39510
O1828       O  0.24475468  0.90322560  0.67833558    -0.39460
O1829       O  0.18520174  0.93192848  0.52891319    -0.40160
O1830       O  0.18131320  0.88668713  0.52191701    -0.40230
C1831       C  0.46067210  0.88168744  0.62393963    -0.12510
C1832       C  0.48817562  0.91020764  0.61988917     0.04500
C1833       C  0.48576849  0.93613791  0.61329436    -0.07800
C1834       C  0.45649056  0.93316288  0.60996444    -0.08540
C1835       C  0.42878454  0.90483981  0.61472428    -0.03090
C1836       C  0.43119643  0.87885935  0.62237149     0.03730
N1837       N  0.40454537  0.84995544  0.63020639     0.66230
H1838       H  0.46211981  0.86178396  0.63057145     0.15130
H1839       H  0.45569289  0.95382682  0.60515142     0.14840
N1840       N  0.01286718  0.96613948  0.61194507     0.73940
O1841       O  0.40018172  0.82499989  0.61587436    -0.39510
O1842       O  0.39064481  0.84859413  0.65667181    -0.39460
O1843       O  0.02755899  0.97429241  0.58551761    -0.40160
O1844       O  0.02355223  0.98346614  0.63800627    -0.40230
C1845       C  0.98596968  0.62241515  0.00326993    -0.12510
C1846       C  0.48041381  0.64332749  0.98727821     0.04500
C1847       C  0.99587292  0.67490464  0.99887738    -0.07800
C1848       C  0.01693975  0.68469750  0.52597308    -0.08540
C1849       C  0.02362245  0.66402046  0.54084952    -0.03090
C1850       C  0.00774151  0.63239409  0.52950205     0.03730
N1851       N  0.01385714  0.61026542  0.54361160     0.66230
H1852       H  0.97497958  0.59845346  0.99360426     0.15130
H1853       H  0.02825102  0.70864282  0.53564658     0.14840
N1854       N  0.49022824  0.69702457  0.98375680     0.73940
O1855       O  0.99229326  0.58235569  0.54510823    -0.39510
O1856       O  0.04151746  0.61714241  0.54925132    -0.39460
O1857       O  0.46489592  0.68810036  0.96837401    -0.40160
O1858       O  0.00924336  0.72581800  0.98827748    -0.40230
C1859       C  0.00224692  0.68023590  0.72174955    -0.12510
C1860       C  0.02403068  0.67047930  0.71938305     0.04500
C1861       C  0.02418100  0.65095179  0.74313766    -0.07800
C1862       C  0.00366956  0.64260377  0.76911005    -0.08540
C1863       C  0.48259653  0.65316142  0.77257418    -0.03090
C1864       C  0.48144643  0.67190296  0.74811389     0.03730
N1865       N  0.46059824  0.68373105  0.74995569     0.66230
H1866       H  0.00153884  0.69455809  0.70306241     0.15130
H1867       H  0.00441262  0.62762901  0.78699356     0.14840
N1868       N  0.04412968  0.63820810  0.74069676     0.73940
O1869       O  0.47004540  0.71117080  0.74223160    -0.39510
O1870       O  0.43171884  0.66529575  0.75188409    -0.39460
O1871       O  0.07216655  0.65471536  0.75040161    -0.40160
O1872       O  0.03218309  0.60910822  0.73718489    -0.40230
C1873       C  0.35762879  0.99575221  0.97526471    -0.12510
C1874       C  0.37875564  0.52739915  0.98217060     0.04500
C1875       C  0.38721262  0.53925563  0.51516373    -0.07800
C1876       C  0.37494389  0.51876861  0.54061130    -0.08540
C1877       C  0.35466706  0.98683476  0.53371668    -0.03090
C1878       C  0.34508648  0.97519415  0.00066342     0.03730
N1879       N  0.32237045  0.94307998  0.99245833     0.66230
H1880       H  0.35139039  0.98695613  0.94974938     0.15130
H1881       H  0.38171222  0.52773882  0.56598205     0.14840
N1882       N  0.40829094  0.57173715  0.52315769     0.73940
O1883       O  0.32195107  0.93092886  0.96421994    -0.39510
O1884       O  0.29982732  0.92833675  0.01110713    -0.39460
O1885       O  0.40594922  0.59187038  0.50805342    -0.40160
O1886       O  0.42646946  0.58034322  0.54808287    -0.40230
C1887       C  0.38627302  0.50759920  0.78511485    -0.12510
C1888       C  0.38634320  0.53549215  0.78351665     0.04500
C1889       C  0.37550832  0.54139059  0.75404685    -0.07800
C1890       C  0.36858923  0.52092156  0.72608799    -0.08540
C1891       C  0.37055432  0.99407627  0.72707603    -0.03090
C1892       C  0.37682638  0.98599632  0.75774129     0.03730
N1893       N  0.36971964  0.95495428  0.76268662     0.66230
H1894       H  0.39198553  0.50192733  0.80846144     0.15130
H1895       H  0.36128227  0.52582113  0.70322097     0.14840
N1896       N  0.36999043  0.56683399  0.75208857     0.73940
O1897       O  0.38124576  0.94973687  0.78744773    -0.39510
O1898       O  0.34623215  0.93245046  0.74793640    -0.39460
O1899       O  0.38659233  0.59218874  0.76847869    -0.40160
O1900       O  0.34924605  0.56454123  0.73246543    -0.40230
C1901       C  0.05336390  0.62352210  0.88997023    -0.12510
C1902       C  0.02653235  0.59879157  0.90252104     0.04500
C1903       C  0.02927151  0.57766419  0.92205430    -0.07800
C1904       C  0.05778957  0.57906322  0.92362518    -0.08540
C1905       C  0.08416807  0.60224410  0.90855901    -0.03090
C1906       C  0.08275561  0.62730075  0.89598540     0.03730
N1907       N  0.10981562  0.65797875  0.89538085     0.66230
H1908       H  0.05165788  0.64171702  0.87859652     0.15130
H1909       H  0.05924893  0.56181734  0.93717928     0.14840
N1910       N  0.00420656  0.55528576  0.94109629     0.73940
O1911       O  0.10699970  0.68003280  0.88580209    -0.39510
O1912       O  0.13347820  0.66492796  0.91295272    -0.39460
O1913       O  0.47709817  0.53883374  0.92876769    -0.40160
O1914       O  0.00995434  0.54941737  0.96922874    -0.40230
C1915       C  0.30143903  0.62047522  0.86965065    -0.12510
C1916       C  0.27673539  0.59528016  0.85187462     0.04500
C1917       C  0.28103258  0.57200006  0.83603807    -0.07800
C1918       C  0.31001463  0.57434868  0.83866253    -0.08540
C1919       C  0.33434082  0.59885682  0.85746538    -0.03090
C1920       C  0.33025877  0.62238436  0.87307032     0.03730
N1921       N  0.35448532  0.64767825  0.89304708     0.66230
H1922       H  0.29766469  0.63778733  0.88249679     0.15130
H1923       H  0.31325827  0.55624054  0.82695821     0.14840
N1924       N  0.25575035  0.54468104  0.81965171     0.73940
O1925       O  0.35697443  0.67409923  0.89402408    -0.39510
O1926       O  0.37011782  0.64263063  0.91352462    -0.39460
O1927       O  0.24069501  0.54715842  0.79631609    -0.40160
O1928       O  0.25164534  0.51824174  0.82490694    -0.40230
C1929       C  0.03221050  0.85926598  0.00187821    -0.12510
C1930       C  0.01586155  0.85471040  0.53138306     0.04500
C1931       C  0.48439172  0.84682216  0.52951404    -0.07800
C1932       C  0.47115867  0.84639840  0.49861779    -0.08540
C1933       C  0.48809551  0.85250059  0.96938306    -0.03090
C1934       C  0.01862298  0.85769372  0.97105624     0.03730
N1935       N  0.03698497  0.86362691  0.94217937     0.66230
H1936       H  0.05654228  0.86593197  0.00304691     0.15130
H1937       H  0.44718046  0.84080960  0.49722976     0.14840
N1938       N  0.46583548  0.83989512  0.55850565     0.73940
O1939       O  0.06263747  0.88877461  0.94113834    -0.39510
O1940       O  0.03109042  0.84155996  0.92134723    -0.39460
O1941       O  0.94106730  0.84086967  0.55822040    -0.40160
O1942       O  0.47160113  0.82854436  0.58265057    -0.40230
C1943       C  0.99105041  0.83187972  0.76163641    -0.12510
C1944       C  0.47609687  0.84913309  0.76747897     0.04500
C1945       C  0.47276406  0.86449848  0.74113523    -0.07800
C1946       C  0.98425648  0.86252845  0.71021992    -0.08540
C1947       C  0.00206310  0.84830159  0.70523458    -0.03090
C1948       C  0.00503498  0.83202251  0.73113289     0.03730
N1949       N  0.02348637  0.81738873  0.72783506     0.66230
H1950       H  0.99346196  0.81974975  0.78170365     0.15130
H1951       H  0.98277374  0.87593181  0.69091098     0.14840
N1952       N  0.46058977  0.88471956  0.74577556     0.73940
O1953       O  0.03352500  0.81128999  0.75318812    -0.39510
O1954       O  0.02811784  0.80854636  0.69978129    -0.39460
O1955       O  0.47557264  0.90893052  0.76449428    -0.40160
O1956       O  0.44200089  0.88390639  0.72419047    -0.40230
C1957       C  0.44060147  0.96413604  0.87858141    -0.12510
C1958       C  0.41210069  0.93574998  0.87931591     0.04500
C1959       C  0.38439376  0.93639528  0.87272174    -0.07800
C1960       C  0.38565283  0.96505698  0.87222855    -0.08540
C1961       C  0.41402550  0.99328901  0.87270415    -0.03090
C1962       C  0.44178022  0.99213625  0.87184651     0.03730
N1963       N  0.47045129  0.51787111  0.86113554     0.66230
H1964       H  0.46214051  0.96389627  0.87975508     0.15130
H1965       H  0.36407122  0.96513840  0.87016711     0.14840
N1966       N  0.35502894  0.90875540  0.86479261     0.73940
O1967       O  0.49606169  0.51977790  0.86772845    -0.39510
O1968       O  0.46978622  0.53473582  0.83946965    -0.39460
O1969       O  0.33067207  0.90603795  0.87742618    -0.40160
O1970       O  0.35225465  0.89251931  0.83871409    -0.40230
C1971       C  0.43016052  0.70691888  0.91650415    -0.12510
C1972       C  0.44301958  0.70252290  0.88732170     0.04500
C1973       C  0.45246879  0.72446225  0.86309019    -0.07800
C1974       C  0.44660847  0.74884673  0.86754561    -0.08540
C1975       C  0.43240449  0.75288900  0.89597485    -0.03090
C1976       C  0.42558174  0.73241342  0.92166701     0.03730
N1977       N  0.41395642  0.73665313  0.95271430     0.66230
H1978       H  0.42337366  0.69026924  0.93528121     0.15130
H1979       H  0.45368132  0.76520051  0.84835351     0.14840
N1980       N  0.46775384  0.72231609  0.83367441     0.73940
O1981       O  0.39355095  0.71325652  0.96688223    -0.39510
O1982       O  0.42852231  0.76240428  0.96912330    -0.39460
O1983       O  0.48663466  0.71263871  0.83472507    -0.40160
O1984       O  0.96580217  0.73413600  0.80772148    -0.40230
C1985       C  0.03685057  0.95295880  0.88867152    -0.12510
C1986       C  0.03760374  0.92678588  0.87535983     0.04500
C1987       C  0.06608819  0.93123665  0.86315779    -0.07800
C1988       C  0.09273915  0.96133799  0.86543946    -0.08420
C1989       C  0.09137512  0.98739541  0.87798826    -0.03090
C1990       C  0.06310251  0.98266483  0.89050522     0.03730
N1991       N  0.06127792  0.50688958  0.90872856     0.66230
H1992       H  0.01569538  0.95043533  0.89896978     0.15130
H1993       H  0.11462287  0.96442737  0.85729059     0.14840
N1994       N  0.06863892  0.90594368  0.84854636     0.73940
O1995       O  0.03829312  0.51026658  0.90370249    -0.39510
O1996       O  0.07698382  0.51821058  0.93536069    -0.39460
O1997       O  0.05248124  0.89097743  0.82301412    -0.40160
O1998       O  0.09127562  0.90290333  0.85668021    -0.40230
C1999       C  0.29030181  0.69762367  0.89728725    -0.12510
C2000       C  0.27419216  0.68593467  0.86682325     0.04500
C2001       C  0.28777384  0.70278904  0.83846120    -0.07800
C2002       C  0.31671108  0.73050839  0.84132331    -0.08540
C2003       C  0.33212025  0.74294225  0.87208102    -0.03090
C2004       C  0.31868275  0.72578035  0.90037009     0.03730
N2005       N  0.33249622  0.73709535  0.93277357     0.66230
H2006       H  0.28046771  0.68509823  0.91929493     0.15130
H2007       H  0.32612358  0.74350491  0.81951674     0.14840
N2008       N  0.27140802  0.69395635  0.80718928     0.73940
O2009       O  0.31640211  0.73860386  0.95608300    -0.39510
O2010       O  0.35848241  0.73991445  0.93940541    -0.39460
O2011       O  0.24658214  0.69458875  0.80435034    -0.40160
O2012       O  0.28498764  0.69250995  0.78143507    -0.40230
C2013       C  0.34803954  0.82240945  0.99971844    -0.12510
C2014       C  0.35321777  0.83570043  0.96898291     0.04500
C2015       C  0.34350567  0.85732969  0.96412283    -0.07800
C2016       C  0.33160466  0.86707398  0.99036905    -0.08540
C2017       C  0.32910090  0.85586345  0.52162686    -0.03090
C2018       C  0.33604101  0.83220265  0.52591551     0.03730
N2019       N  0.33093449  0.81777970  0.55661230     0.66230
H2020       H  0.35448528  0.80518824  0.00390668     0.15130
H2021       H  0.32592737  0.88489285  0.98671670     0.14840
N2022       N  0.34797061  0.87183999  0.93369980     0.73940
O2023       O  0.30946798  0.78988108  0.55830914    -0.39510
O2024       O  0.35162128  0.83018712  0.57924857    -0.39460
O2025       O  0.33161742  0.85599173  0.90861137    -0.40160
O2026       O  0.36209343  0.90110491  0.93410713    -0.40230
C2027       C  0.39685247  0.91460223  0.73665182    -0.12510
C2028       C  0.36919751  0.89269028  0.72000360     0.04500
C2029       C  0.35181486  0.86269685  0.73198467    -0.07800
C2030       C  0.36327750  0.85532126  0.75962437    -0.08540
C2031       C  0.39155420  0.87738438  0.77578867    -0.03090
C2032       C  0.40778749  0.90798761  0.76454461     0.03730
N2033       N  0.43501396  0.93327257  0.78103416     0.66230
H2034       H  0.41002282  0.93804995  0.72846192     0.15130
H2035       H  0.35020256  0.83201204  0.76811345     0.14840
N2036       N  0.32370179  0.83902365  0.71562773     0.73940
O2037       O  0.45766078  0.95149125  0.76409105    -0.39510
O2038       O  0.43251958  0.94293474  0.80951941    -0.39460
O2039       O  0.32464274  0.82951920  0.68647066    -0.40160
O2040       O  0.29990018  0.82313234  0.73230572    -0.40230
O2041       O  0.93762270  0.40691991  0.38974267    -0.80380
O2042       O  0.95217507  0.35914470  0.43702116    -0.80400
O2043       O  0.87082470  0.33454221  0.41325124    -0.80410
O2044       O  0.00221589  0.37163959  0.35939722    -0.80350
O2045       O  0.89142346  0.32210655  0.45488556    -0.80470
O2046       O  0.98505104  0.39598143  0.38846755    -0.80390
O2047       O  0.97536397  0.33647594  0.41218670    -0.80380
O2048       O  0.89055367  0.38078156  0.36912427    -0.80420
C2049       C  0.91290751  0.40615752  0.38129886     1.09310
C2050       C  0.97228442  0.35080497  0.43759643     1.09200
C2051       C  0.87242541  0.33007307  0.44457015     1.09330
C2052       C  0.00780507  0.39634163  0.37546909     1.09210
O2053       O  0.97193855  0.37712933  0.31585908    -0.80380
O2054       O  0.87327279  0.28733411  0.40160890    -0.80460
O2055       O  0.88899736  0.34148079  0.31447202    -0.80390
O2056       O  0.92546829  0.28915074  0.36831148    -0.80370
O2057       O  0.92293706  0.29291657  0.42132084    -0.80420
O2058       O  0.92634147  0.38973343  0.32097780    -0.80390
O2059       O  0.95150884  0.32637046  0.31669505    -0.80350
O2060       O  0.86652666  0.29265468  0.35127720    -0.80420
Co2061     Co  0.95400522  0.38963897  0.35574870     1.51530
Co2062     Co  0.91283397  0.32733641  0.41546604     1.51690
Co2063     Co  0.88288445  0.33711251  0.36255146     1.51570
Co2064     Co  0.96080818  0.33091522  0.36399900     1.51470
O2065       O  0.92821962  0.34504192  0.37079217    -1.42310
C2066       C  0.96493973  0.35088771  0.30125565     1.09240
C2067       C  0.85904097  0.27547409  0.37473405     1.09330
C2068       C  0.90318336  0.36868286  0.30458012     1.09270
C2069       C  0.92519706  0.27839592  0.39570706     1.09240
O2070       O  0.93579365  0.13768723  0.30241176    -0.80380
O2071       O  0.93799040  0.04866271  0.38267475    -0.80400
O2072       O  0.49145214  0.10916735  0.37428553    -0.80410
O2073       O  0.87528564  0.05096615  0.33593512    -0.80350
O2074       O  0.97957771  0.09168927  0.42344660    -0.80470
O2075       O  0.92216343  0.07987970  0.31707002    -0.80390
O2076       O  0.88869725  0.02274319  0.38206130    -0.80380
O2077       O  0.97696411  0.14248408  0.32971705    -0.80420
C2078       C  0.96409587  0.14484227  0.30299297     1.09310
C2079       C  0.91370582  0.02299021  0.37802736     1.09200
C2080       C  0.49766935  0.09935029  0.39963878     1.09330
C2081       C  0.89521776  0.05624467  0.31379221     1.09210
O2082       O  0.88006669  0.10213764  0.33661118    -0.80380
O2083       O  0.93897430  0.10954458  0.44965451    -0.80460
O2084       O  0.96777578  0.17297999  0.38962491    -0.80390
O2085       O  0.88361577  0.05803451  0.43638743    -0.80370
O2086       O  0.92206515  0.04904652  0.44816427    -0.80420
O2087       O  0.92361840  0.15202447  0.36322791    -0.80390
O2088       O  0.86839681  0.08963021  0.38808595    -0.80350
O2089       O  0.98373058  0.14363308  0.42975520    -0.80420
Co2090     Co  0.92530985  0.11649035  0.34177646     1.51530
Co2091     Co  0.93564767  0.07827113  0.41535467     1.51690
Co2092     Co  0.97558056  0.13825705  0.38081047     1.51570
Co2093     Co  0.88315543  0.05980519  0.38545374     1.51470
O2094       O  0.92879786  0.10058789  0.38289515    -1.42310
C2095       C  0.86285152  0.09790785  0.36124313     1.09240
C2096       C  0.96596833  0.13300385  0.45399303     1.09330
C2097       C  0.94447591  0.17410669  0.38068326     1.09270
C2098       C  0.89556471  0.04570015  0.45436775     1.09240
O2099       O  0.52101339  0.38893578  0.12200193    -0.80380
O2100       O  0.65061697  0.47316972  0.07841124    -0.80400
O2101       O  0.59679937  0.47918813  0.16754522    -0.80410
O2102       O  0.55426720  0.39785558  0.06171949    -0.80350
O2103       O  0.62355958  0.49339601  0.12280214    -0.80470
O2104       O  0.53636659  0.35545553  0.08665041    -0.80390
O2105       O  0.60542621  0.44969768  0.05448047    -0.80380
O2106       O  0.54125510  0.43704518  0.13937290    -0.80420
C2107       C  0.51860621  0.41265471  0.12653951     1.09310
C2108       C  0.63263047  0.47221999  0.05625237     1.09200
C2109       C  0.61031868  0.49891821  0.14648928     1.09330
C2110       C  0.53531424  0.36945584  0.06184617     1.09210
O2111       O  0.58695438  0.36833622  0.13572583    -0.80380
O2112       O  0.64279036  0.46886750  0.17274125    -0.80460
O2113       O  0.54148489  0.39091720  0.17963847    -0.80390
O2114       O  0.64261458  0.42034731  0.07512868    -0.80370
O2115       O  0.65276383  0.43402404  0.12745871    -0.80420
O2116       O  0.52616148  0.34556972  0.15380587    -0.80390
O2117       O  0.58982119  0.36790985  0.08185346    -0.80350
O2118       O  0.60279873  0.43095295  0.19409455    -0.80420
Co2119     Co  0.55621932  0.38108487  0.13045946     1.51530
Co2120     Co  0.63720729  0.46244445  0.12491638     1.51690
Co2121     Co  0.57303097  0.43345266  0.16405336     1.51570
Co2122     Co  0.59722926  0.41022121  0.07162546     1.51470
O2123       O  0.59122382  0.42437165  0.11908356    -1.42310
C2124       C  0.59144231  0.35732208  0.10908814     1.09240
C2125       C  0.62903668  0.45509069  0.19776138     1.09330
C2126       C  0.52472057  0.36125390  0.17859524     1.09270
C2127       C  0.65871553  0.42398601  0.10113253     1.09240
O2128       O  0.68514813  0.15221581  0.35003322    -0.80380
O2129       O  0.64529245  0.02062720  0.38999711    -0.80400
O2130       O  0.66359955  0.05604331  0.31450042    -0.80410
O2131       O  0.61270139  0.07965969  0.42538756    -0.80350
O2132       O  0.68631976  0.03554512  0.34110051    -0.80470
O2133       O  0.63474147  0.11406385  0.38766497    -0.80390
O2134       O  0.61870807  0.04310269  0.37643440    -0.80380
O2135       O  0.66340119  0.10982671  0.31871651    -0.80420
C2136       C  0.67210421  0.13817548  0.32259538     1.09310
C2137       C  0.61999021  0.01867467  0.38061981     1.09200
C2138       C  0.67076147  0.03543948  0.31627503     1.09330
C2139       C  0.61207099  0.09916559  0.40759020     1.09210
O2140       O  0.68563614  0.16234505  0.41866399    -0.80380
O2141       O  0.73416401  0.08537989  0.38396011    -0.80460
O2142       O  0.72979406  0.14302944  0.33838564    -0.80390
O2143       O  0.64588116  0.05472421  0.43907867    -0.80370
O2144       O  0.69411515  0.06746960  0.43517851    -0.80420
O2145       O  0.72840142  0.14831327  0.39263304    -0.80390
O2146       O  0.67284447  0.11772425  0.43992172    -0.80350
O2147       O  0.72983716  0.08950704  0.33066210    -0.80420
Co2148     Co  0.68285654  0.12903186  0.39079780     1.51530
Co2149     Co  0.68997500  0.05501265  0.38736659     1.51690
Co2150     Co  0.69506794  0.09873861  0.32788221     1.51570
Co2151     Co  0.64660724  0.08138301  0.40432161     1.51470
O2152       O  0.68105648  0.08901101  0.37472439    -1.42310
C2153       C  0.67757678  0.14573026  0.44349065     1.09240
C2154       C  0.74563459  0.09065692  0.35570342     1.09330
C2155       C  0.74284809  0.15726430  0.36593898     1.09270
C2156       C  0.66934114  0.05526715  0.45102667     1.09240
O2157       O  0.53889890  0.12214228  0.16775540    -0.80380
O2158       O  0.63525979  0.20362251  0.07193066    -0.80400
O2159       O  0.53190826  0.17900809  0.09759712    -0.80410
O2160       O  0.60037782  0.11836523  0.12828614    -0.80350
O2161       O  0.57084403  0.17866166  0.07238444    -0.80470
O2162       O  0.59187775  0.11912286  0.18088520    -0.80390
O2163       O  0.61731523  0.15582088  0.08089166    -0.80380
O2164       O  0.53967788  0.13147172  0.11493157    -0.80420
C2165       C  0.52684141  0.11431048  0.13854090     1.09310
C2166       C  0.63110945  0.17735912  0.06203368     1.09200
C2167       C  0.54322214  0.17498170  0.07125850     1.09330
C2168       C  0.59627665  0.10625123  0.15533171     1.09210
O2169       O  0.62443668  0.18339363  0.20386758    -0.80380
O2170       O  0.61030716  0.24053769  0.08814188    -0.80460
O2171       O  0.53452019  0.17120546  0.16192762    -0.80390
O2172       O  0.66609979  0.20648584  0.12444227    -0.80370
O2173       O  0.64306585  0.23329380  0.13674832    -0.80420
O2174       O  0.57301336  0.18693280  0.19588349    -0.80390
O2175       O  0.64826463  0.16466420  0.17368686    -0.80350
O2176       O  0.58211018  0.22445400  0.13276205    -0.80420
Co2177     Co  0.58283236  0.15437306  0.18471646     1.51530
Co2178     Co  0.60700171  0.20537324  0.10755709     1.51690
Co2179     Co  0.56226553  0.17672489  0.12355890     1.51570
Co2180     Co  0.63117398  0.16198423  0.12707124     1.51470
O2181       O  0.59804908  0.17219309  0.13970908    -1.42310
C2182       C  0.64486595  0.17575199  0.20143314     1.09240
C2183       C  0.59617448  0.24537128  0.11156990     1.09330
C2184       C  0.54505651  0.17857348  0.19116840     1.09270
C2185       C  0.66749272  0.23198831  0.13326140     1.09240
O2186       O  0.89908026  0.42852557  0.10480442    -0.80380
O2187       O  0.84790713  0.44272191  0.06004731    -0.80400
O2188       O  0.83874145  0.37768256  0.07688860    -0.80410
O2189       O  0.87904738  0.50438723  0.13467673    -0.80350
O2190       O  0.80409183  0.38139522  0.04699708    -0.80470
O2191       O  0.90106654  0.48285374  0.10768984    -0.80390
O2192       O  0.83326854  0.47300238  0.08645241    -0.80380
O2193       O  0.87450869  0.38482486  0.12784452    -0.80420
C2194       C  0.89893590  0.40495747  0.11427019     1.09310
C2195       C  0.84491043  0.46644394  0.06147735     1.09200
C2196       C  0.82278727  0.37156137  0.04981902     1.09330
C2197       C  0.90267851  0.50709273  0.11973768     1.09210
O2198       O  0.88890884  0.47792574  0.17973471    -0.80380
O2199       O  0.78746862  0.36894472  0.11121514    -0.80460
O2200       O  0.83531970  0.39031505  0.17580274    -0.80390
O2201       O  0.79074610  0.43279408  0.13538370    -0.80370
O2202       O  0.78649254  0.41716082  0.08366803    -0.80420
O2203       O  0.88595896  0.42315828  0.17450395    -0.80390
O2204       O  0.83868407  0.46199430  0.18200334    -0.80350
O2205       O  0.80987890  0.34296441  0.12771871    -0.80420
Co2206     Co  0.89190850  0.45234429  0.14011004     1.51530
Co2207     Co  0.82076927  0.40734902  0.08642696     1.51690
Co2208     Co  0.83471091  0.38656569  0.12692510     1.51570
Co2209     Co  0.83536956  0.46537076  0.13435344     1.51470
O2210       O  0.84726564  0.43189434  0.12597303    -1.42310
C2211       C  0.86554670  0.47557580  0.19548621     1.09240
C2212       C  0.78547731  0.34380699  0.12110221     1.09330
C2213       C  0.86237917  0.40256022  0.18895346     1.09270
C2214       C  0.77442911  0.42215446  0.10900500     1.09240
C2215       C  0.96019126  0.03302343  0.11536040    -0.12510
C2216       C  0.93398809  0.03603801  0.12188428     0.04500
C2217       C  0.93908277  0.06569301  0.13209144    -0.07800
C2218       C  0.96967724  0.09073263  0.13744457    -0.08540
C2219       C  0.99549792  0.08702651  0.13241709    -0.03090
C2220       C  0.99076790  0.05814011  0.11993558     0.03730
N2221       N  0.51641668  0.05377083  0.11171482     0.66230
H2222       H  0.95696436  0.01071787  0.10669839     0.15130
H2223       H  0.97332920  0.11332392  0.14569984     0.14840
N2224       N  0.91377797  0.07112836  0.13630796     0.73940
O2225       O  0.51326655  0.02718247  0.11237059    -0.39510
O2226       O  0.54063005  0.07514381  0.09946305    -0.39460
O2227       O  0.89818382  0.06312409  0.16216813    -0.40160
O2228       O  0.91169284  0.08986671  0.11838751    -0.40230
C2229       C  0.70794681  0.27168476  0.10115696    -0.12510
C2230       C  0.69745011  0.26121725  0.13259471     0.04500
C2231       C  0.71514644  0.27921570  0.16112258    -0.07800
C2232       C  0.74429246  0.30614564  0.15666425    -0.08540
C2233       C  0.75464646  0.31625062  0.12502048    -0.03090
C2234       C  0.73573580  0.29941759  0.09717058     0.03730
N2235       N  0.74422966  0.31033175  0.06470848     0.66230
H2236       H  0.69389397  0.25855505  0.07940724     0.15130
H2237       H  0.75882560  0.31980795  0.17790220     0.14840
N2238       N  0.70434868  0.27098231  0.19423236     0.73940
O2239       O  0.74488883  0.29258761  0.04183083    -0.39510
O2240       O  0.74388123  0.33432547  0.05738000    -0.39460
O2241       O  0.67673730  0.25010270  0.19929659    -0.40160
O2242       O  0.72181809  0.28632379  0.21890533    -0.40230
C2243       C  0.65051276  0.18136085  0.26303371    -0.12510
C2244       C  0.66006633  0.17432573  0.23268482     0.04500
C2245       C  0.67861020  0.16040024  0.23351247    -0.07800
C2246       C  0.68279391  0.14974149  0.26349349    -0.08540
C2247       C  0.67089392  0.15451020  0.29335176    -0.03090
C2248       C  0.65594326  0.17198975  0.29319794     0.03730
N2249       N  0.64413065  0.17862833  0.32276068     0.66230
H2250       H  0.63733843  0.19311677  0.26325620     0.15130
H2251       H  0.69554053  0.13753454  0.26357909     0.14840
N2252       N  0.69340528  0.15703424  0.20444123     0.73940
O2253       O  0.66152595  0.19037543  0.34825558    -0.39510
O2254       O  0.61882070  0.17852017  0.32148040    -0.39460
O2255       O  0.70745109  0.17952942  0.18612674    -0.40160
O2256       O  0.69692079  0.13386952  0.19999164    -0.40230
C2257       C  0.66940743  0.19421752  0.01554327    -0.12510
C2258       C  0.64289998  0.17077530  0.03051109     0.04500
C2259       C  0.62973056  0.13977418  0.01712973    -0.07800
C2260       C  0.64325211  0.13289574  0.49050627    -0.08540
C2261       C  0.66931745  0.15591278  0.47517057    -0.03090
C2262       C  0.68298214  0.18717789  0.48805347     0.03730
N2263       N  0.71127799  0.21150255  0.47499836     0.66230
H2264       H  0.68031136  0.21784153  0.02614668     0.15130
H2265       H  0.63226457  0.10891732  0.48111146     0.14840
N2266       N  0.60175584  0.11465624  0.02929175     0.73940
O2267       O  0.71816034  0.23948155  0.47904202    -0.39510
O2268       O  0.73133044  0.20566902  0.46324447    -0.39460
O2269       O  0.57793924  0.10100161  0.01039145    -0.40160
O2270       O  0.60355679  0.10057698  0.05331331    -0.40230
C2271       C  0.64575204  0.03916067  0.00519355    -0.12510
C2272       C  0.66556342  0.03831281  0.48104068     0.04500
C2273       C  0.67497344  0.51611054  0.48248789    -0.07800
C2274       C  0.66449759  0.49558998  0.50804430    -0.08540
C2275       C  0.64384356  0.49575853  0.03142818    -0.03090
C2276       C  0.63401855  0.01772976  0.02995800     0.03730
N2277       N  0.61183658  0.01841329  0.05241657     0.66230
H2278       H  0.63772921  0.05549510  0.00335328     0.15130
H2279       H  0.67154500  0.47841884  0.50884970     0.14840
N2280       N  0.69230933  0.51181966  0.45657756     0.73940
O2281       O  0.61039927  0.04280222  0.05682561    -0.39510
O2282       O  0.59089838  0.99388057  0.06434054    -0.39460
O2283       O  0.71923944  0.03356459  0.45050559    -0.40160
O2284       O  0.68277470  0.48499361  0.44331550    -0.40230
C2285       C  0.64823555  0.98170722  0.28971171    -0.12510
C2286       C  0.66402035  0.01407756  0.28700671     0.04500
C2287       C  0.66994898  0.02606041  0.25543902    -0.07800
C2288       C  0.65909914  0.00566943  0.22773035    -0.08540
C2289       C  0.64139228  0.47319602  0.22985758    -0.03090
C2290       C  0.63561116  0.46101656  0.26146459     0.03730
N2291       N  0.61660596  0.42833766  0.26561866     0.66230
H2292       H  0.64409909  0.47253700  0.31379793     0.15130
H2293       H  0.66388632  0.01588666  0.20397981     0.14840
N2294       N  0.68649801  0.05891980  0.25079493     0.73940
O2295       O  0.62536282  0.41565982  0.28562374    -0.39510
O2296       O  0.58861275  0.41394466  0.25540898    -0.39460
O2297       O  0.71198063  0.07670322  0.26604455    -0.40160
O2298       O  0.67814111  0.06946205  0.22789619    -0.40230
C2299       C  0.62558852  0.08070343  0.13785751    -0.12510
C2300       C  0.60150905  0.07993081  0.15682354     0.04500
C2301       C  0.58290536  0.05396875  0.17501097    -0.07800
C2302       C  0.58677412  0.02821876  0.17134909    -0.08540
C2303       C  0.60977627  0.02819353  0.15096950    -0.03090
C2304       C  0.63074334  0.05562859  0.13569302     0.03730
N2305       N  0.65800202  0.05910963  0.11960737     0.66230
H2306       H  0.64106723  0.10146587  0.12528217     0.15130
H2307       H  0.57130039  0.00787478  0.18449040     0.14840
N2308       N  0.55946612  0.05289116  0.19635730     0.73940
O2309       O  0.66906419  0.07658171  0.09584246    -0.39510
O2310       O  0.67426211  0.04967087  0.13290208    -0.39460
O2311       O  0.53230827  0.02949725  0.19448681    -0.40160
O2312       O  0.56728627  0.07201830  0.22105073    -0.40230
C2313       C  0.61501316  0.32820181  0.13079615    -0.12510
C2314       C  0.59375283  0.32921900  0.10912175     0.04500
C2315       C  0.57285390  0.30228341  0.08964156    -0.07800
C2316       C  0.57359088  0.27501082  0.09218236    -0.08540
C2317       C  0.59494636  0.27398587  0.11346154    -0.03090
C2318       C  0.61602946  0.30078943  0.13309546     0.03730
N2319       N  0.63855372  0.30071717  0.15502461     0.66230
H2320       H  0.63072432  0.34878937  0.14607303     0.15130
H2321       H  0.55761234  0.25449029  0.07696017     0.14840
N2322       N  0.54995616  0.30182419  0.06806245     0.73940
O2323       O  0.66474211  0.32504281  0.16035490    -0.39510
O2324       O  0.63130087  0.27753622  0.17173158    -0.39460
O2325       O  0.55821442  0.31543822  0.04141548    -0.40160
O2326       O  0.52149292  0.28277069  0.07210063    -0.40230
C2327       C  0.70043384  0.42224547  0.13261359    -0.12510
C2328       C  0.68615464  0.41931955  0.10164755     0.04500
C2329       C  0.69942974  0.41349507  0.07321546    -0.07800
C2330       C  0.72712619  0.41257095  0.07641698    -0.08540
C2331       C  0.74236516  0.41763846  0.10732859    -0.03090
C2332       C  0.72785853  0.42131508  0.13583660     0.03730
N2333       N  0.74057006  0.42433675  0.16841848     0.66230
H2334       H  0.69032377  0.42555991  0.15501596     0.15130
H2335       H  0.73760706  0.40941899  0.05423096     0.14840
N2336       N  0.68608346  0.40961603  0.04085196     0.73940
O2337       O  0.74310188  0.44547547  0.18885549    -0.39510
O2338       O  0.74475607  0.40322743  0.17833749    -0.39460
O2339       O  0.68520237  0.43192801  0.02891452    -0.40160
O2340       O  0.68131037  0.38668498  0.02192070    -0.40230
C2341       C  0.96066621  0.38167339  0.12390042    -0.12510
C2342       C  0.98817077  0.41019981  0.11987492     0.04500
C2343       C  0.98576355  0.43613866  0.11332206    -0.07800
C2344       C  0.95648666  0.43316693  0.11000649    -0.08540
C2345       C  0.92877996  0.40483592  0.11473261    -0.03090
C2346       C  0.93119025  0.37884684  0.12234533     0.03730
N2347       N  0.90453846  0.34993752  0.13016620     0.66230
H2348       H  0.96211339  0.36176391  0.13050922     0.15130
H2349       H  0.95568977  0.45383748  0.10522583     0.14840
N2350       N  0.51286035  0.46614575  0.11200910     0.73940
O2351       O  0.90018030  0.32498749  0.11582508    -0.39510
O2352       O  0.89062979  0.34856459  0.15662857    -0.39460
O2353       O  0.52770297  0.47423488  0.08566522    -0.40160
O2354       O  0.52346155  0.48348404  0.13807207    -0.40230
C2355       C  0.48596984  0.12241531  0.50327029    -0.12510
C2356       C  0.98041343  0.14332740  0.48727844     0.04500
C2357       C  0.49587203  0.17490443  0.49887786    -0.07800
C2358       C  0.51694022  0.18469719  0.02597285    -0.08540
C2359       C  0.52362254  0.16401981  0.04084911    -0.03090
C2360       C  0.50774142  0.13239355  0.02950140     0.03730
N2361       N  0.51385745  0.11026481  0.04361000     0.66230
H2362       H  0.47498000  0.09845361  0.49360469     0.15130
H2363       H  0.52825176  0.20864248  0.03564646     0.14840
N2364       N  0.99022650  0.19702401  0.48375748     0.73940
O2365       O  0.49229400  0.08235471  0.04510513    -0.39510
O2366       O  0.54151795  0.11714208  0.04924897    -0.39460
O2367       O  0.96489363  0.18809931  0.46837563    -0.40160
O2368       O  0.50924133  0.22581746  0.48827788    -0.40230
C2369       C  0.50224640  0.18023549  0.22174841    -0.12510
C2370       C  0.52402995  0.17047863  0.21938241     0.04500
C2371       C  0.52418070  0.15095218  0.24313806    -0.07800
C2372       C  0.50366955  0.14260505  0.26911071    -0.08540
C2373       C  0.98259628  0.15316254  0.27257394    -0.03090
C2374       C  0.98144619  0.17190356  0.24811296     0.03730
N2375       N  0.96059846  0.18373222  0.24995433     0.66230
H2376       H  0.50153828  0.19455718  0.20306069     0.15130
H2377       H  0.50441275  0.12763087  0.28699489     0.14840
N2378       N  0.54412948  0.13820860  0.24069786     0.73940
O2379       O  0.97004590  0.21117172  0.24222910    -0.39510
O2380       O  0.93171905  0.16529751  0.25188384    -0.39460
O2381       O  0.57216585  0.15471550  0.25040455    -0.40160
O2382       O  0.53218305  0.10910883  0.23718437    -0.40230
C2383       C  0.85762763  0.49575297  0.47526482    -0.12510
C2384       C  0.87875456  0.02739997  0.48217001     0.04500
C2385       C  0.88721319  0.03925442  0.01516448    -0.07800
C2386       C  0.87494395  0.01876704  0.04061161    -0.08540
C2387       C  0.85466730  0.48683342  0.03371643    -0.03090
C2388       C  0.84508577  0.47519526  0.50066392     0.03730
N2389       N  0.82236967  0.44308101  0.49245939     0.66230
H2390       H  0.85138878  0.48695654  0.44974963     0.15130
H2391       H  0.88171166  0.02773695  0.06598252     0.14840
N2392       N  0.90829139  0.07173589  0.02315903     0.73940
O2393       O  0.82195003  0.43092947  0.46422118    -0.39510
O2394       O  0.79982670  0.42833813  0.51110848    -0.39460
O2395       O  0.90595049  0.09186936  0.00805428    -0.40160
O2396       O  0.92646900  0.08034168  0.04808496    -0.40230
C2397       C  0.88627530  0.00760144  0.28511360    -0.12510
C2398       C  0.88634261  0.03549292  0.28351601     0.04500
C2399       C  0.87550560  0.04138998  0.25404683    -0.07800
C2400       C  0.86858670  0.02092092  0.22608796    -0.08540
C2401       C  0.87055496  0.49407735  0.22707527    -0.03090
C2402       C  0.87682875  0.48599839  0.25774026     0.03730
N2403       N  0.86972293  0.45495677  0.26268592     0.66230
H2404       H  0.89198935  0.00193042  0.30845984     0.15130
H2405       H  0.86127744  0.02581911  0.20322154     0.14840
N2406       N  0.86998591  0.06683225  0.25208915     0.73940
O2407       O  0.88125057  0.44974036  0.28744645    -0.39510
O2408       O  0.84623424  0.43245251  0.24793785    -0.39460
O2409       O  0.88658815  0.09218770  0.26847801    -0.40160
O2410       O  0.84924023  0.06453813  0.23246704    -0.40230
C2411       C  0.55336350  0.12352470  0.38996962    -0.12510
C2412       C  0.52653190  0.09879360  0.40251975     0.04500
C2413       C  0.52927119  0.07766621  0.42205281    -0.07800
C2414       C  0.55778947  0.07906586  0.42362427    -0.08540
C2415       C  0.58416806  0.10224720  0.40855869    -0.03090
C2416       C  0.58275538  0.12730373  0.39598510     0.03730
N2417       N  0.60981529  0.15798184  0.39538062     0.66230
H2418       H  0.55165730  0.14171959  0.37859609     0.15130
H2419       H  0.55924889  0.06182003  0.43717838     0.14840
N2420       N  0.50420612  0.05528723  0.44109422     0.73940
O2421       O  0.60699918  0.18003588  0.38580214    -0.39510
O2422       O  0.63347820  0.16493104  0.41295191    -0.39460
O2423       O  0.97709801  0.03883421  0.42876461    -0.40160
O2424       O  0.50995350  0.04941933  0.46922713    -0.40230
C2425       C  0.80143718  0.12047529  0.36965087    -0.12510
C2426       C  0.77673378  0.09528061  0.35187410     0.04500
C2427       C  0.78103165  0.07200162  0.33603572    -0.07800
C2428       C  0.81001391  0.07435053  0.33865999    -0.08540
C2429       C  0.83433975  0.09885803  0.35746396    -0.03090
C2430       C  0.83025723  0.12238492  0.37306992     0.03730
N2431       N  0.85448375  0.14767891  0.39304670     0.66230
H2432       H  0.79766249  0.13778679  0.38249790     0.15130
H2433       H  0.81325801  0.05624308  0.32695459     0.14840
N2434       N  0.75574996  0.04468336  0.31964748     0.73940
O2435       O  0.85697223  0.17409963  0.39402439    -0.39510
O2436       O  0.87011746  0.14263174  0.41352308    -0.39460
O2437       O  0.74069352  0.04716204  0.29631394    -0.40160
O2438       O  0.75164628  0.01824387  0.32489899    -0.40230
C2439       C  0.53219081  0.35923373  0.50188566    -0.12510
C2440       C  0.51587331  0.35471110  0.03137423     0.04500
C2441       C  0.98439371  0.34679024  0.02950509    -0.07800
C2442       C  0.97115659  0.34636516  0.99861083    -0.08540
C2443       C  0.98809050  0.35250124  0.46938711    -0.03090
C2444       C  0.51860502  0.35765936  0.47106163     0.03730
N2445       N  0.53695658  0.36355096  0.44218157     0.66230
H2446       H  0.55651587  0.36587537  0.50305341     0.15130
H2447       H  0.94717047  0.34075119  0.99722157     0.14840
N2448       N  0.96583168  0.33983403  0.05849425     0.73940
O2449       O  0.56261646  0.38868727  0.44111490    -0.39510
O2450       O  0.53104521  0.34145831  0.42137914    -0.39460
O2451       O  0.44104725  0.34077829  0.05821089    -0.40160
O2452       O  0.97161317  0.32849030  0.08263454    -0.40230
C2453       C  0.49105077  0.33187973  0.26163471    -0.12510
C2454       C  0.97609637  0.34913242  0.26747665     0.04500
C2455       C  0.97275983  0.36449386  0.24113098    -0.07800
C2456       C  0.48424918  0.36252028  0.21021445    -0.08540
C2457       C  0.50205770  0.34829526  0.20523007    -0.03090
C2458       C  0.50503302  0.33202001  0.23113026     0.03730
N2459       N  0.52348528  0.31738716  0.22783282     0.66230
H2460       H  0.49346478  0.31975229  0.28170304     0.15130
H2461       H  0.48276274  0.37591966  0.19090307     0.14840
N2462       N  0.96058524  0.38471479  0.24577027     0.73940
O2463       O  0.53352689  0.31129188  0.25318606    -0.39510
O2464       O  0.52811418  0.30854178  0.19977943    -0.39460
O2465       O  0.97556792  0.40892618  0.26448840    -0.40160
O2466       O  0.94199562  0.38390053  0.22418539    -0.40230
C2467       C  0.94060009  0.46413676  0.37857832    -0.12510
C2468       C  0.91209939  0.43575064  0.37931323     0.04500
C2469       C  0.88439231  0.43639588  0.37271984    -0.07800
C2470       C  0.88565129  0.46505761  0.37222711    -0.08540
C2471       C  0.91402393  0.49328973  0.37270237    -0.03090
C2472       C  0.94177864  0.49213697  0.37184384     0.03730
N2473       N  0.97044941  0.01787184  0.36113229     0.66230
H2474       H  0.96213918  0.46389705  0.37975141     0.15130
H2475       H  0.86406963  0.46513901  0.37016628     0.14840
N2476       N  0.85502744  0.40875592  0.36479098     0.73940
O2477       O  0.99605999  0.01977883  0.36772471    -0.39510
O2478       O  0.96978387  0.03473645  0.33946655    -0.39460
O2479       O  0.83067061  0.40603851  0.37742462    -0.40160
O2480       O  0.85225304  0.39251956  0.33871266    -0.40230
C2481       C  0.93016034  0.20692066  0.41650408    -0.12510
C2482       C  0.94301760  0.20252340  0.38732083     0.04500
C2483       C  0.95246578  0.22446191  0.36308859    -0.07800
C2484       C  0.94660652  0.24884700  0.36754423    -0.08540
C2485       C  0.93240446  0.25289072  0.39597437    -0.03090
C2486       C  0.92558256  0.23241585  0.42166707     0.03730
N2487       N  0.91395944  0.23665715  0.45271516     0.66230
H2488       H  0.92337415  0.19027157  0.43528163     0.15130
H2489       H  0.95367878  0.26520014  0.34835151     0.14840
N2490       N  0.96774907  0.22231442  0.33367198     0.73940
O2491       O  0.89355471  0.21326140  0.46688483    -0.39510
O2492       O  0.92852661  0.26240894  0.46912281    -0.39460
O2493       O  0.98663092  0.21263829  0.33472220    -0.40160
O2494       O  0.46579351  0.23413122  0.30771799    -0.40230
C2495       C  0.53684865  0.45296109  0.38867054    -0.12510
C2496       C  0.53760272  0.42678865  0.37535826     0.04500
C2497       C  0.56608691  0.43124010  0.36315557    -0.07800
C2498       C  0.59273862  0.46134171  0.36543725    -0.08420
C2499       C  0.59137310  0.48739846  0.37798748    -0.03090
C2500       C  0.56310053  0.48266740  0.39050446     0.03730
N2501       N  0.56127541  0.00689178  0.40872845     0.66230
H2502       H  0.51569436  0.45043714  0.39896857     0.15130
H2503       H  0.61461621  0.46443077  0.35729048     0.14840
N2504       N  0.56863813  0.40594778  0.34854273     0.73940
O2505       O  0.53828963  0.01026753  0.40370394    -0.39510
O2506       O  0.57698260  0.01821380  0.43535973    -0.39460
O2507       O  0.55247989  0.39098192  0.32301055    -0.40160
O2508       O  0.59127525  0.40290776  0.35667514    -0.40230
C2509       C  0.79030229  0.19762441  0.39728710    -0.12510
C2510       C  0.77419250  0.18593527  0.36682318     0.04500
C2511       C  0.78777431  0.20278925  0.33846094    -0.07800
C2512       C  0.81671154  0.23050862  0.34132286    -0.08540
C2513       C  0.83212070  0.24294278  0.37208052    -0.03090
C2514       C  0.81868336  0.22578100  0.40036970     0.03730
N2515       N  0.83249722  0.23709603  0.43277303     0.66230
H2516       H  0.78046821  0.18509915  0.41929489     0.15130
H2517       H  0.82612401  0.24350492  0.31951615     0.14840
N2518       N  0.77140864  0.19395613  0.30718894     0.73940
O2519       O  0.81640332  0.23860424  0.45608285    -0.39510
O2520       O  0.85848369  0.23991553  0.43940429    -0.39460
O2521       O  0.74658342  0.19458963  0.30434924    -0.40160
O2522       O  0.78498803  0.19250825  0.28143516    -0.40230
C2523       C  0.84804504  0.32241465  0.49971971    -0.12510
C2524       C  0.85321858  0.33570196  0.46898238     0.04500
C2525       C  0.84350280  0.35732825  0.46412104    -0.07800
C2526       C  0.83160124  0.36707223  0.49036704    -0.08540
C2527       C  0.82909997  0.35586174  0.02162768    -0.03090
C2528       C  0.83603498  0.33219696  0.02591447     0.03730
N2529       N  0.83092042  0.31776751  0.05660820     0.66230
H2530       H  0.85449432  0.30519631  0.50390953     0.15130
H2531       H  0.82592090  0.38488878  0.48671360     0.14840
N2532       N  0.84796616  0.37183738  0.43369746     0.73940
O2533       O  0.80946514  0.28986238  0.05829173    -0.39510
O2534       O  0.85159447  0.33017919  0.07925683    -0.39460
O2535       O  0.83161256  0.35598823  0.40860961    -0.40160
O2536       O  0.86208882  0.40110224  0.43410372    -0.40230
C2537       C  0.89685006  0.41460104  0.23665127    -0.12510
C2538       C  0.86919434  0.39268924  0.22000417     0.04500
C2539       C  0.85181211  0.36269582  0.23198508    -0.07800
C2540       C  0.86327548  0.35532024  0.25962410    -0.08540
C2541       C  0.89155275  0.37738337  0.27578744    -0.03090
C2542       C  0.90778608  0.40798646  0.26454309     0.03730
N2543       N  0.93501356  0.43327136  0.28103135     0.66230
H2544       H  0.91002040  0.43804872  0.22846121     0.15130
H2545       H  0.85020073  0.33201106  0.26811334     0.14840
N2546       N  0.82369905  0.33902257  0.21562826     0.73940
O2547       O  0.95765974  0.45148930  0.26408703    -0.39510
O2548       O  0.93252076  0.44293443  0.30951676    -0.39460
O2549       O  0.82464020  0.32951736  0.18647160    -0.40160
O2550       O  0.79989721  0.32313192  0.23230619    -0.40230
O2551       O  0.93762358  0.40691889  0.88974551    -0.80380
O2552       O  0.95217574  0.35914170  0.93702326    -0.80400
O2553       O  0.87082494  0.33454106  0.91325239    -0.80410
O2554       O  0.00221544  0.37163710  0.85939776    -0.80350
O2555       O  0.89142289  0.32210486  0.95488699    -0.80470
O2556       O  0.98505187  0.39597969  0.88846923    -0.80390
O2557       O  0.97536359  0.33647279  0.91218572    -0.80380
O2558       O  0.89055473  0.38078109  0.86912651    -0.80420
C2559       C  0.91290856  0.40615679  0.88130160     1.09310
C2560       C  0.97228600  0.35080298  0.93759544     1.09200
C2561       C  0.87242505  0.33007157  0.94457127     1.09330
C2562       C  0.00780549  0.39633916  0.87547029     1.09210
O2563       O  0.97193846  0.37712850  0.81586144    -0.80380
O2564       O  0.87327261  0.28733301  0.90160976    -0.80460
O2565       O  0.88899820  0.34148123  0.81447328    -0.80390
O2566       O  0.92546711  0.28914838  0.86831184    -0.80370
O2567       O  0.92293647  0.29291426  0.92132145    -0.80420
O2568       O  0.92634228  0.38973383  0.82098009    -0.80390
O2569       O  0.95150715  0.32636923  0.81669557    -0.80350
O2570       O  0.86652685  0.29265418  0.85127804    -0.80420
Co2571     Co  0.95400574  0.38963812  0.85575102     1.51530
Co2572     Co  0.91283412  0.32733465  0.91546760     1.51690
Co2573     Co  0.88288494  0.33711199  0.86255278     1.51570
Co2574     Co  0.96080719  0.33091291  0.86399906     1.51470
O2575       O  0.92821977  0.34504080  0.87079386    -1.42310
C2576       C  0.96493911  0.35088708  0.80125730     1.09240
C2577       C  0.85904081  0.27547339  0.87473478     1.09330
C2578       C  0.90318430  0.36868353  0.80458184     1.09270
C2579       C  0.92519620  0.27839361  0.89570747     1.09240
O2580       O  0.93579510  0.13768797  0.80241372    -0.80380
O2581       O  0.93799189  0.04866187  0.88267684    -0.80400
O2582       O  0.49145294  0.10916549  0.87428640    -0.80410
O2583       O  0.87528690  0.05096527  0.83593601    -0.80350
O2584       O  0.97957890  0.09168904  0.92344816    -0.80470
O2585       O  0.92216429  0.07987953  0.81707005    -0.80390
O2586       O  0.88869870  0.02274242  0.88206193    -0.80380
O2587       O  0.97696523  0.14248178  0.82971685    -0.80420
C2588       C  0.96409685  0.14484138  0.80299369     1.09310
C2589       C  0.91370736  0.02298947  0.87802886     1.09200
C2590       C  0.49767019  0.09934896  0.89964006     1.09330
C2591       C  0.89521878  0.05624407  0.81379277     1.09210
O2592       O  0.88006769  0.10213684  0.83661220    -0.80380
O2593       O  0.93897495  0.10954462  0.94965450    -0.80460
O2594       O  0.96777832  0.17297976  0.88962339    -0.80390
O2595       O  0.88361711  0.05803373  0.93638815    -0.80370
O2596       O  0.92206695  0.04904673  0.94816599    -0.80420
O2597       O  0.92361888  0.15202311  0.86323058    -0.80390
O2598       O  0.86839823  0.08962933  0.88808697    -0.80350
O2599       O  0.98373152  0.14363258  0.92975510    -0.80420
Co2600     Co  0.92531078  0.11648982  0.84177764     1.51530
Co2601     Co  0.93564877  0.07827062  0.91535584     1.51690
Co2602     Co  0.97558194  0.13825582  0.88081030     1.51570
Co2603     Co  0.88315679  0.05980432  0.88545449     1.51470
O2604       O  0.92879925  0.10058673  0.88289548    -1.42310
C2605       C  0.86285264  0.09790685  0.86124426     1.09240
C2606       C  0.96596897  0.13300392  0.95399284     1.09330
C2607       C  0.94447770  0.17410610  0.88068386     1.09270
C2608       C  0.89556618  0.04569974  0.95436881     1.09240
O2609       O  0.52101664  0.38894236  0.62201000    -0.80380
O2610       O  0.65061642  0.47316935  0.57840898    -0.80400
O2611       O  0.59680857  0.47919344  0.66754799    -0.80410
O2612       O  0.55426530  0.39785654  0.56171812    -0.80350
O2613       O  0.62356500  0.49340015  0.62280253    -0.80470
O2614       O  0.53636414  0.35545900  0.58665491    -0.80390
O2615       O  0.60542441  0.44969849  0.55448125    -0.80380
O2616       O  0.54126243  0.43705290  0.63937754    -0.80420
C2617       C  0.51861135  0.41266235  0.62654813     1.09310
C2618       C  0.63262848  0.47222078  0.55625263     1.09200
C2619       C  0.61032710  0.49892364  0.64649185     1.09330
C2620       C  0.53530975  0.36945768  0.56185008     1.09210
O2621       O  0.58695611  0.36833885  0.63572462    -0.80380
O2622       O  0.64279619  0.46886971  0.67273963    -0.80460
O2623       O  0.54149076  0.39092315  0.67964297    -0.80390
O2624       O  0.64261316  0.42034655  0.57512664    -0.80370
O2625       O  0.65276430  0.43402409  0.62745626    -0.80420
O2626       O  0.52616555  0.34557518  0.65381034    -0.80390
O2627       O  0.58981787  0.36790958  0.58185188    -0.80350
O2628       O  0.60280563  0.43095487  0.69409335    -0.80420
Co2629     Co  0.55622196  0.38108928  0.63046228     1.51530
Co2630     Co  0.63721026  0.46244637  0.62491499     1.51690
Co2631     Co  0.57303771  0.43345759  0.66405548     1.51570
Co2632     Co  0.59722768  0.41022174  0.57162474     1.51470
O2633       O  0.59122592  0.42437465  0.61908360    -1.42310
C2634       C  0.59144100  0.35732287  0.60908648     1.09240
C2635       C  0.62904370  0.45509225  0.69775993     1.09330
C2636       C  0.52472596  0.36125982  0.67859994     1.09270
C2637       C  0.65871489  0.42398534  0.60113001     1.09240
O2638       O  0.68514741  0.15221332  0.85003271    -0.80380
O2639       O  0.64529485  0.02062507  0.88999652    -0.80400
O2640       O  0.66360185  0.05604195  0.81449922    -0.80410
O2641       O  0.61270124  0.07965585  0.92538680    -0.80350
O2642       O  0.68632254  0.03554464  0.84110018    -0.80470
O2643       O  0.63474125  0.11406067  0.88766472    -0.80390
O2644       O  0.61870936  0.04309940  0.87643388    -0.80380
O2645       O  0.66340176  0.10982454  0.81871542    -0.80420
C2646       C  0.67210392  0.13817310  0.82259463     1.09310
C2647       C  0.61999206  0.01867176  0.88061959     1.09200
C2648       C  0.67076435  0.03543864  0.81627439     1.09330
C2649       C  0.61207082  0.09916208  0.90758991     1.09210
O2650       O  0.68563554  0.16234237  0.91866367    -0.80380
O2651       O  0.73416575  0.08538009  0.88396001    -0.80460
O2652       O  0.72979438  0.14302856  0.83838538    -0.80390
O2653       O  0.64588303  0.05472171  0.93907807    -0.80370
O2654       O  0.69411751  0.06746900  0.93517750    -0.80420
O2655       O  0.72840142  0.14831171  0.89263275    -0.80390
O2656       O  0.67284397  0.11772161  0.93992144    -0.80350
O2657       O  0.72983918  0.08950697  0.83066201    -0.80420
Co2658     Co  0.68285649  0.12902953  0.89079739     1.51530
Co2659     Co  0.68997714  0.05501180  0.88736604     1.51690
Co2660     Co  0.69506919  0.09873744  0.82788163     1.51570
Co2661     Co  0.64660768  0.08138010  0.90432106     1.51470
O2662       O  0.68105724  0.08900918  0.87472374    -1.42310
C2663       C  0.67757616  0.14572759  0.94349033     1.09240
C2664       C  0.74563647  0.09065699  0.85570348     1.09330
C2665       C  0.74284811  0.15726331  0.86593882     1.09270
C2666       C  0.66934364  0.05526543  0.95102556     1.09240
O2667       O  0.53889963  0.12214407  0.66775632    -0.80380
O2668       O  0.63526012  0.20362435  0.57193090    -0.80400
O2669       O  0.53190805  0.17900888  0.59759758    -0.80410
O2670       O  0.60037643  0.11836577  0.62828548    -0.80350
O2671       O  0.57084433  0.17866341  0.57238488    -0.80470
O2672       O  0.59187826  0.11912384  0.68088488    -0.80390
O2673       O  0.61731472  0.15582246  0.58089136    -0.80380
O2674       O  0.53967801  0.13147294  0.61493242    -0.80420
C2675       C  0.52684134  0.11431252  0.63854223     1.09310
C2676       C  0.63110943  0.17736091  0.56203369     1.09200
C2677       C  0.54322212  0.17498275  0.57125897     1.09330
C2678       C  0.59627664  0.10625205  0.65533113     1.09210
O2679       O  0.62443776  0.18339466  0.70386749    -0.80380
O2680       O  0.61030777  0.24053964  0.58814237    -0.80460
O2681       O  0.53452095  0.17120722  0.66192832    -0.80390
O2682       O  0.66610015  0.20648662  0.62444219    -0.80370
O2683       O  0.64306716  0.23329560  0.63674813    -0.80420
O2684       O  0.57301425  0.18693419  0.69588406    -0.80390
O2685       O  0.64826456  0.16466430  0.67368629    -0.80350
O2686       O  0.58211006  0.22445532  0.63276198    -0.80420
Co2687     Co  0.58283317  0.15437440  0.68471673     1.51530
Co2688     Co  0.60700236  0.20537511  0.60755745     1.51690
Co2689     Co  0.56226571  0.17672617  0.62355921     1.51570
Co2690     Co  0.63117364  0.16198498  0.62707081     1.51470
O2691       O  0.59804957  0.17219477  0.63970933    -1.42310
C2692       C  0.64486636  0.17575214  0.70143283     1.09240
C2693       C  0.59617439  0.24537275  0.61156999     1.09330
C2694       C  0.54505736  0.17857490  0.69116909     1.09270
C2695       C  0.66749377  0.23198951  0.63326113     1.09240
O2696       O  0.89908500  0.42853141  0.60480257    -0.80380
O2697       O  0.84790788  0.44272369  0.56004745    -0.80400
O2698       O  0.83874376  0.37768500  0.57688733    -0.80410
O2699       O  0.87904664  0.50438833  0.63467941    -0.80350
O2700       O  0.80409314  0.38139703  0.54699687    -0.80470
O2701       O  0.90106666  0.48285668  0.60769118    -0.80390
O2702       O  0.83326922  0.47300387  0.58645326    -0.80380
O2703       O  0.87451369  0.38482953  0.62784066    -0.80420
C2704       C  0.89894067  0.40496266  0.61426574     1.09310
C2705       C  0.84491092  0.46644558  0.56147786     1.09200
C2706       C  0.82278905  0.37156374  0.54981813     1.09330
C2707       C  0.90267837  0.50709487  0.61974102     1.09210
O2708       O  0.88890860  0.47792545  0.67973576    -0.80380
O2709       O  0.78747081  0.36894558  0.61121518    -0.80460
O2710       O  0.83532339  0.39031627  0.67580173    -0.80390
O2711       O  0.79074587  0.43279382  0.63538336    -0.80370
O2712       O  0.78649335  0.41716154  0.58366763    -0.80420
O2713       O  0.88596253  0.42315959  0.67450283    -0.80390
O2714       O  0.83868357  0.46199346  0.68200395    -0.80350
O2715       O  0.80988244  0.34296596  0.62771701    -0.80420
Co2716     Co  0.89191033  0.45234659  0.64010996     1.51530
Co2717     Co  0.82077061  0.40735045  0.58642688     1.51690
Co2718     Co  0.83471401  0.38656762  0.62692397     1.51570
Co2719     Co  0.83536946  0.46537109  0.63435422     1.51470
O2720       O  0.84726719  0.43189577  0.62597282    -1.42310
C2721       C  0.86554616  0.47557491  0.69548705     1.09240
C2722       C  0.78548023  0.34380791  0.62110155     1.09330
C2723       C  0.86238283  0.40256133  0.68895243     1.09270
C2724       C  0.77442932  0.42215464  0.60900432     1.09240
C2725       C  0.96019181  0.03302275  0.61537944    -0.12510
C2726       C  0.93398810  0.03603963  0.62189104     0.04500
C2727       C  0.93908218  0.06569679  0.63208770    -0.07800
C2728       C  0.96967669  0.09073788  0.63743698    -0.08540
C2729       C  0.99549724  0.08702979  0.63241961    -0.03090
C2730       C  0.99076751  0.05813994  0.61995447     0.03730
N2731       N  0.51641720  0.05376790  0.61175226     0.66230
H2732       H  0.95696671  0.01071534  0.60672810     0.15130
H2733       H  0.97332872  0.11333112  0.64568325     0.14840
N2734       N  0.91377698  0.07113231  0.63629952     0.73940
O2735       O  0.51327820  0.02718783  0.61246562    -0.39510
O2736       O  0.54061953  0.07512447  0.59946603    -0.39460
O2737       O  0.89817664  0.06312327  0.66215532    -0.40160
O2738       O  0.91169755  0.08987555  0.61838180    -0.40230
C2739       C  0.70794823  0.27168626  0.60115672    -0.12510
C2740       C  0.69745177  0.26121823  0.63259436     0.04500
C2741       C  0.71514911  0.27921581  0.66112215    -0.07800
C2742       C  0.74429563  0.30614536  0.65666377    -0.08540
C2743       C  0.75464937  0.31625096  0.62502004    -0.03090
C2744       C  0.73573775  0.29941874  0.59717034     0.03730
N2745       N  0.74423104  0.31033348  0.56470839     0.66230
H2746       H  0.69389477  0.25855730  0.57940706     0.15130
H2747       H  0.75882919  0.31980706  0.67790171     0.14840
N2748       N  0.70435172  0.27098201  0.69423195     0.73940
O2749       O  0.74488911  0.29258943  0.54182987    -0.39510
O2750       O  0.74388276  0.33432754  0.55738104    -0.39460
O2751       O  0.67673941  0.25010472  0.69929641    -0.40160
O2752       O  0.72182251  0.28632127  0.71890483    -0.40230
C2753       C  0.65051269  0.18135948  0.76303357    -0.12510
C2754       C  0.66006611  0.17432458  0.73268445     0.04500
C2755       C  0.67860933  0.16039836  0.73351169    -0.07800
C2756       C  0.68279285  0.14973912  0.76349250    -0.08540
C2757       C  0.67089323  0.15450786  0.79335106    -0.03090
C2758       C  0.65594297  0.17198784  0.79319761     0.03730
N2759       N  0.64413065  0.17862652  0.82276054     0.66230
H2760       H  0.63733876  0.19311583  0.76325639     0.15130
H2761       H  0.69553916  0.13753184  0.76357771     0.14840
N2762       N  0.69340404  0.15703217  0.70444023     0.73940
O2763       O  0.66152600  0.19037311  0.84825545    -0.39510
O2764       O  0.61882115  0.17851925  0.82148037    -0.39460
O2765       O  0.70745033  0.17952750  0.68612601    -0.40160
O2766       O  0.69691871  0.13386697  0.69999013    -0.40230
C2767       C  0.66940753  0.19421980  0.51554349    -0.12510
C2768       C  0.64290019  0.17077735  0.53051123     0.04500
C2769       C  0.62973104  0.13977631  0.51712986    -0.07800
C2770       C  0.64325132  0.13289341  0.99050592    -0.08540
C2771       C  0.66931686  0.15591022  0.97517026    -0.03090
C2772       C  0.68298191  0.18717534  0.98805327     0.03730
N2773       N  0.71127803  0.21149974  0.97499831     0.66230
H2774       H  0.68031119  0.21784380  0.52614690     0.15130
H2775       H  0.63226350  0.10891499  0.98111098     0.14840
N2776       N  0.60175613  0.11465830  0.52929146     0.73940
O2777       O  0.71816089  0.23947888  0.97904210    -0.39510
O2778       O  0.73133020  0.20566577  0.96324449    -0.39460
O2779       O  0.57793953  0.10100434  0.51039111    -0.40160
O2780       O  0.60355674  0.10057847  0.55331265    -0.40230
C2781       C  0.64574486  0.03915911  0.50519314    -0.12510
C2782       C  0.66556721  0.03831133  0.98103921     0.04500
C2783       C  0.67497400  0.51610650  0.98248449    -0.07800
C2784       C  0.66449794  0.49558606  0.00804122    -0.08540
C2785       C  0.64384017  0.49575937  0.53142914    -0.03090
C2786       C  0.63401144  0.01772775  0.52995751     0.03730
N2787       N  0.61182791  0.01840955  0.55241572     0.66230
H2788       H  0.63771983  0.05549168  0.50335173     0.15130
H2789       H  0.67154270  0.47841285  0.00884532     0.14840
N2790       N  0.69230691  0.51181327  0.95657238     0.73940
O2791       O  0.61039247  0.04279931  0.55682759    -0.39510
O2792       O  0.59088763  0.99387605  0.56433723    -0.39460
O2793       O  0.71923647  0.03355752  0.95049686    -0.40160
O2794       O  0.68277057  0.48498632  0.94331197    -0.40230
C2795       C  0.64823696  0.98170701  0.78970991    -0.12510
C2796       C  0.66402468  0.01407698  0.78700652     0.04500
C2797       C  0.66995801  0.02606053  0.75543891    -0.07800
C2798       C  0.65911098  0.00566998  0.72773010    -0.08540
C2799       C  0.64140033  0.47319669  0.72985627    -0.03090
C2800       C  0.63561414  0.46101661  0.76146340     0.03730
N2801       N  0.61660474  0.42833810  0.76561647     0.66230
H2802       H  0.64409518  0.47253375  0.81380294     0.15130
H2803       H  0.66390251  0.01588838  0.70397871     0.14840
N2804       N  0.68650753  0.05891994  0.75079556     0.73940
O2805       O  0.62535854  0.41565718  0.78562110    -0.39510
O2806       O  0.58861129  0.41394940  0.75540804    -0.39460
O2807       O  0.71198974  0.07670296  0.76604592    -0.40160
O2808       O  0.67815160  0.06946256  0.72789628    -0.40230
C2809       C  0.62559088  0.08070658  0.63785582    -0.12510
C2810       C  0.60151171  0.07993316  0.65682331     0.04500
C2811       C  0.58291205  0.05397239  0.67501421    -0.07800
C2812       C  0.58678621  0.02822562  0.67135708    -0.08540
C2813       C  0.60978566  0.02819964  0.65097372    -0.03090
C2814       C  0.63074841  0.05563331  0.63569239     0.03730
N2815       N  0.65800540  0.05911458  0.61960254     0.66230
H2816       H  0.64106673  0.10146811  0.62527765     0.15130
H2817       H  0.57131590  0.00788304  0.68450218     0.14840
N2818       N  0.55946783  0.05289022  0.69635549     0.73940
O2819       O  0.66906391  0.07658551  0.59583625    -0.39510
O2820       O  0.67426769  0.04967677  0.63289412    -0.39460
O2821       O  0.53231250  0.02949222  0.69448211    -0.40160
O2822       O  0.56728149  0.07201712  0.72104835    -0.40230
C2823       C  0.61501469  0.32820431  0.63079173    -0.12510
C2824       C  0.59375131  0.32921967  0.60912037     0.04500
C2825       C  0.57284948  0.30228241  0.58964420    -0.07800
C2826       C  0.57358687  0.27501005  0.59218568    -0.08540
C2827       C  0.59494565  0.27398705  0.61346155    -0.03090
C2828       C  0.61603138  0.30079222  0.63309169     0.03730
N2829       N  0.63855827  0.30072162  0.65501815     0.66230
H2830       H  0.63072795  0.34879311  0.64606581     0.15130
H2831       H  0.55760625  0.25448826  0.57696636     0.14840
N2832       N  0.54994888  0.30182151  0.56806822     0.73940
O2833       O  0.66474709  0.32504758  0.66034477    -0.39510
O2834       O  0.63130737  0.27754221  0.67172697    -0.39460
O2835       O  0.55820371  0.31543413  0.54142021    -0.40160
O2836       O  0.52148638  0.28276756  0.57210986    -0.40230
C2837       C  0.70043254  0.42224369  0.63261134    -0.12510
C2838       C  0.68615396  0.41931855  0.60164503     0.04500
C2839       C  0.69943002  0.41349517  0.57321313    -0.07800
C2840       C  0.72712675  0.41257144  0.57641517    -0.08540
C2841       C  0.74236513  0.41763835  0.60732714    -0.03090
C2842       C  0.72785752  0.42131386  0.63583486     0.03730
N2843       N  0.74056837  0.42433500  0.66841699     0.66230
H2844       H  0.69032179  0.42555720  0.65501364     0.15130
H2845       H  0.73760832  0.40942029  0.55422932     0.14840
N2846       N  0.68608443  0.40961682  0.54084940     0.73940
O2847       O  0.74309904  0.44547291  0.68885448    -0.39510
O2848       O  0.74475477  0.40322581  0.67833564    -0.39460
O2849       O  0.68520171  0.43192838  0.52891314    -0.40160
O2850       O  0.68131318  0.38668703  0.52191707    -0.40230
C2851       C  0.96067212  0.38168748  0.62393964    -0.12510
C2852       C  0.98817564  0.41020768  0.61988920     0.04500
C2853       C  0.98576851  0.43613796  0.61329440    -0.07800
C2854       C  0.95649057  0.43316292  0.60996446    -0.08540
C2855       C  0.92878455  0.40483985  0.61472428    -0.03090
C2856       C  0.93119645  0.37885938  0.62237148     0.03730
N2857       N  0.90454539  0.34995547  0.63020637     0.66230
H2858       H  0.96211984  0.36178400  0.63057144     0.15130
H2859       H  0.95569290  0.45382686  0.60515146     0.14840
N2860       N  0.51286719  0.46613949  0.61194504     0.73940
O2861       O  0.90018173  0.32499992  0.61587432    -0.39510
O2862       O  0.89064482  0.34859414  0.65667178    -0.39460
O2863       O  0.52755882  0.47429256  0.58551749    -0.40160
O2864       O  0.52355236  0.48346607  0.63800628    -0.40230
C2865       C  0.48596967  0.12241510  0.00326994    -0.12510
C2866       C  0.98041383  0.14332750  0.98727820     0.04500
C2867       C  0.49587287  0.17490457  0.99887741    -0.07800
C2868       C  0.51693965  0.18469744  0.52597313    -0.08540
C2869       C  0.52362240  0.16402041  0.54084953    -0.03090
C2870       C  0.50774148  0.13239405  0.52950203     0.03730
N2871       N  0.51385715  0.11026538  0.54361153     0.66230
H2872       H  0.47497958  0.09845340  0.99360426     0.15130
H2873       H  0.52825090  0.20864275  0.53564666     0.14840
N2874       N  0.99022828  0.19702458  0.98375676     0.73940
O2875       O  0.49229329  0.08235564  0.54510815    -0.39510
O2876       O  0.54151748  0.11714239  0.54925122    -0.39460
O2877       O  0.96489596  0.18810038  0.96837398    -0.40160
O2878       O  0.50924328  0.22581793  0.98827752    -0.40230
C2879       C  0.50224692  0.18023585  0.72174952    -0.12510
C2880       C  0.52403066  0.17047923  0.71938302     0.04500
C2881       C  0.52418101  0.15095176  0.74313767    -0.07800
C2882       C  0.50366960  0.14260380  0.76911008    -0.08540
C2883       C  0.98259654  0.15316144  0.77257418    -0.03090
C2884       C  0.98144645  0.17190300  0.74811389     0.03730
N2885       N  0.96059828  0.18373111  0.74995570     0.66230
H2886       H  0.50153885  0.19455802  0.70306235     0.15130
H2887       H  0.50441267  0.12762905  0.78699362     0.14840
N2888       N  0.54412969  0.13820808  0.74069678     0.73940
O2889       O  0.97004544  0.21117085  0.74223158    -0.39510
O2890       O  0.93171887  0.16529582  0.75188414    -0.39460
O2891       O  0.57216648  0.15471525  0.75040194    -0.40160
O2892       O  0.53218310  0.10910822  0.73718458    -0.40230
C2893       C  0.85762880  0.49575225  0.97526475    -0.12510
C2894       C  0.87875568  0.02739916  0.98217059     0.04500
C2895       C  0.88721263  0.03925562  0.51516374    -0.07800
C2896       C  0.87494390  0.01876860  0.54061130    -0.08540
C2897       C  0.85466714  0.48683488  0.53371672    -0.03090
C2898       C  0.84508650  0.47519418  0.00066345     0.03730
N2899       N  0.82237049  0.44308001  0.99245835     0.66230
H2900       H  0.85139041  0.48695617  0.94974941     0.15130
H2901       H  0.88171221  0.02773880  0.56598206     0.14840
N2902       N  0.90829094  0.07173714  0.52315770     0.73940
O2903       O  0.82195112  0.43092889  0.96421996    -0.39510
O2904       O  0.79982736  0.42833677  0.01110715    -0.39460
O2905       O  0.90594921  0.09187037  0.50805342    -0.40160
O2906       O  0.92646943  0.08034322  0.54808290    -0.40230
C2907       C  0.88627311  0.00759926  0.78511482    -0.12510
C2908       C  0.88634322  0.03549217  0.78351664     0.04500
C2909       C  0.87550827  0.04139058  0.75404687    -0.07800
C2910       C  0.86858916  0.02092154  0.72608801    -0.08540
C2911       C  0.87055435  0.49407628  0.72707608    -0.03090
C2912       C  0.87682636  0.48599631  0.75774136     0.03730
N2913       N  0.86971959  0.45495427  0.76268670     0.66230
H2914       H  0.89198568  0.00192743  0.80846139     0.15130
H2915       H  0.86128215  0.02582108  0.70322101     0.14840
N2916       N  0.86999034  0.06683396  0.75208862     0.73940
O2917       O  0.88124567  0.44973684  0.78744783    -0.39510
O2918       O  0.84623211  0.43245046  0.74793645    -0.39460
O2919       O  0.88659230  0.09218874  0.76847866    -0.40160
O2920       O  0.84924589  0.06454115  0.73246555    -0.40230
C2921       C  0.55336393  0.12352212  0.88997022    -0.12510
C2922       C  0.52653237  0.09879159  0.90252101     0.04500
C2923       C  0.52927152  0.07766419  0.92205424    -0.07800
C2924       C  0.55778958  0.07906321  0.92362513    -0.08540
C2925       C  0.58416809  0.10224409  0.90855899    -0.03090
C2926       C  0.58275564  0.12730075  0.89598538     0.03730
N2927       N  0.60981567  0.15797875  0.89538082     0.66230
H2928       H  0.55165793  0.14171706  0.87859653     0.15130
H2929       H  0.55924892  0.06181731  0.93717921     0.14840
N2930       N  0.50420655  0.05528574  0.94109620     0.73940
O2931       O  0.60699977  0.18003281  0.88580206    -0.39510
O2932       O  0.63347824  0.16492795  0.91295270    -0.39460
O2933       O  0.97709818  0.03883373  0.92876762    -0.40160
O2934       O  0.50995431  0.04941732  0.96922865    -0.40230
C2935       C  0.80143903  0.12047523  0.86965057    -0.12510
C2936       C  0.77673539  0.09528015  0.85187456     0.04500
C2937       C  0.78103258  0.07200004  0.83603806    -0.07800
C2938       C  0.81001463  0.07434865  0.83866253    -0.08540
C2939       C  0.83434082  0.09885681  0.85746536    -0.03090
C2940       C  0.83025877  0.12238437  0.87307026     0.03730
N2941       N  0.85448533  0.14767828  0.89304700     0.66230
H2942       H  0.79766469  0.13778735  0.88249668     0.15130
H2943       H  0.81325827  0.05624050  0.82695825     0.14840
N2944       N  0.75575034  0.04468100  0.81965171     0.73940
O2945       O  0.85697443  0.17409925  0.89402397    -0.39510
O2946       O  0.87011783  0.14263068  0.91352455    -0.39460
O2947       O  0.74069497  0.04715835  0.79631612    -0.40160
O2948       O  0.75164535  0.01824170  0.82490695    -0.40230
C2949       C  0.53221045  0.35926587  0.00187819    -0.12510
C2950       C  0.51586156  0.35471041  0.53138304     0.04500
C2951       C  0.98439174  0.34682215  0.52951412    -0.07800
C2952       C  0.97115869  0.34639837  0.49861787    -0.08540
C2953       C  0.98809553  0.35250063  0.96938310    -0.03090
C2954       C  0.51862293  0.35769363  0.97105622     0.03730
N2955       N  0.53698491  0.36362677  0.94217935     0.66230
H2956       H  0.55654223  0.36593183  0.00304688     0.15130
H2957       H  0.94718047  0.34080956  0.49722984     0.14840
N2958       N  0.96583551  0.33989509  0.55850572     0.73940
O2959       O  0.56263743  0.38877444  0.94113829    -0.39510
O2960       O  0.53109033  0.34155979  0.92134723    -0.39460
O2961       O  0.44106731  0.34086965  0.55822041    -0.40160
O2962       O  0.97160120  0.32854437  0.58265066    -0.40230
C2963       C  0.49105039  0.33187975  0.76163640    -0.12510
C2964       C  0.97609688  0.34913312  0.76747901     0.04500
C2965       C  0.97276405  0.36449850  0.74113527    -0.07800
C2966       C  0.48425649  0.36252851  0.71021991    -0.08540
C2967       C  0.50206310  0.34830162  0.70523457    -0.03090
C2968       C  0.50503496  0.33202253  0.73113288     0.03730
N2969       N  0.52348634  0.31738873  0.72783505     0.66230
H2970       H  0.49346193  0.31974976  0.78170364     0.15130
H2971       H  0.48277377  0.37593187  0.69091098     0.14840
N2972       N  0.96058973  0.38471955  0.74577559     0.73940
O2973       O  0.53352497  0.31128999  0.75318811    -0.39510
O2974       O  0.52811780  0.30854636  0.69978128    -0.39460
O2975       O  0.97557257  0.40893052  0.76449432    -0.40160
O2976       O  0.94200083  0.38390635  0.72419051    -0.40230
C2977       C  0.94060146  0.46413604  0.87858151    -0.12510
C2978       C  0.91210068  0.43574998  0.87931598     0.04500
C2979       C  0.88439376  0.43639528  0.87272179    -0.07800
C2980       C  0.88565282  0.46505697  0.87222860    -0.08540
C2981       C  0.91402549  0.49328901  0.87270422    -0.03090
C2982       C  0.94178021  0.49213626  0.87184660     0.03730
N2983       N  0.97045129  0.01787110  0.86113548     0.66230
H2984       H  0.96214050  0.46389627  0.87975519     0.15130
H2985       H  0.86407121  0.46513840  0.87016714     0.14840
N2986       N  0.85502894  0.40875540  0.86479263     0.73940
O2987       O  0.99606170  0.01977789  0.86772836    -0.39510
O2988       O  0.96978620  0.03473581  0.83946958    -0.39460
O2989       O  0.83067206  0.40603793  0.87742620    -0.40160
O2990       O  0.85225467  0.39251932  0.83871412    -0.40230
C2991       C  0.93016053  0.20691890  0.91650418    -0.12510
C2992       C  0.94301957  0.20252290  0.88732171     0.04500
C2993       C  0.95246876  0.22446224  0.86309019    -0.07800
C2994       C  0.94660845  0.24884672  0.86754562    -0.08540
C2995       C  0.93240449  0.25288901  0.89597488    -0.03090
C2996       C  0.92558176  0.23241344  0.92166704     0.03730
N2997       N  0.91395647  0.23665316  0.95271434     0.66230
H2998       H  0.92337369  0.19026927  0.93528124     0.15130
H2999       H  0.95368128  0.26520050  0.84835351     0.14840
N3000       N  0.96775377  0.22231606  0.83367440     0.73940
O3001       O  0.89355102  0.21325657  0.96688229    -0.39510
O3002       O  0.92852239  0.26240432  0.96912333    -0.39460
O3003       O  0.98663462  0.21263872  0.83472505    -0.40160
O3004       O  0.46580167  0.23413565  0.80772127    -0.40230
C3005       C  0.53685056  0.45295880  0.88867156    -0.12510
C3006       C  0.53760372  0.42678588  0.87535983     0.04500
C3007       C  0.56608816  0.43123665  0.86315774    -0.07800
C3008       C  0.59273910  0.46133799  0.86543942    -0.08420
C3009       C  0.59137511  0.48739541  0.87798825    -0.03090
C3010       C  0.56310250  0.48266482  0.89050526     0.03730
N3011       N  0.56127789  0.00688957  0.90872845     0.66230
H3012       H  0.51569537  0.45043532  0.89896987     0.15130
H3013       H  0.61462292  0.46442740  0.85729046     0.14840
N3014       N  0.56863887  0.40594369  0.84854626     0.73940
O3015       O  0.53829310  0.01026657  0.90370235    -0.39510
O3016       O  0.57698377  0.01821056  0.93536060    -0.39460
O3017       O  0.55248117  0.39097747  0.82301403    -0.40160
O3018       O  0.59127558  0.40290333  0.85668007    -0.40230
C3019       C  0.79030184  0.19762367  0.89728731    -0.12510
C3020       C  0.77419220  0.18593467  0.86682330     0.04500
C3021       C  0.78777388  0.20278903  0.83846126    -0.07800
C3022       C  0.81671112  0.23050839  0.84132336    -0.08540
C3023       C  0.83212028  0.24294225  0.87208107    -0.03090
C3024       C  0.81868278  0.22578035  0.90037015     0.03730
N3025       N  0.83249625  0.23709536  0.93277362     0.66230
H3026       H  0.78046774  0.18509823  0.91929499     0.15130
H3027       H  0.82612362  0.24350490  0.81951679     0.14840
N3028       N  0.77140807  0.19395633  0.80718933     0.73940
O3029       O  0.81640214  0.23860386  0.95608305    -0.39510
O3030       O  0.85848244  0.23991448  0.93940547    -0.39460
O3031       O  0.74658222  0.19458877  0.80435036    -0.40160
O3032       O  0.78498769  0.19250987  0.78143514    -0.40230
C3033       C  0.84803957  0.32240947  0.99971849    -0.12510
C3034       C  0.85321778  0.33570044  0.96898296     0.04500
C3035       C  0.84350565  0.35732968  0.96412287    -0.07800
C3036       C  0.83160464  0.36707396  0.99036908    -0.08540
C3037       C  0.82910095  0.35586355  0.52162686    -0.03090
C3038       C  0.83604102  0.33220272  0.52591551     0.03730
N3039       N  0.83093447  0.31777976  0.55661229     0.66230
H3040       H  0.85448533  0.30518828  0.00390675     0.15130
H3041       H  0.82592734  0.38489283  0.98671672     0.14840
N3042       N  0.84797058  0.37183996  0.93369982     0.73940
O3043       O  0.80946796  0.28988114  0.55830910    -0.39510
O3044       O  0.85162123  0.33018716  0.57924859    -0.39460
O3045       O  0.83161739  0.35599169  0.90861140    -0.40160
O3046       O  0.86209338  0.40110488  0.93410715    -0.40230
C3047       C  0.89685246  0.41460226  0.73665188    -0.12510
C3048       C  0.86919751  0.39269031  0.72000363     0.04500
C3049       C  0.85181487  0.36269687  0.73198469    -0.07800
C3050       C  0.86327750  0.35532128  0.75962439    -0.08540
C3051       C  0.89155419  0.37738440  0.77578872    -0.03090
C3052       C  0.90778748  0.40798764  0.76454467     0.03730
N3053       N  0.93501393  0.43327260  0.78103424     0.66230
H3054       H  0.91002281  0.43804999  0.72846199     0.15130
H3055       H  0.85020256  0.33201205  0.76811347     0.14840
N3056       N  0.82370181  0.33902367  0.71562773     0.73940
O3057       O  0.95766076  0.45149130  0.76409115    -0.39510
O3058       O  0.93251952  0.44293475  0.80951949    -0.39460
O3059       O  0.82464277  0.32951927  0.68647064    -0.40160
O3060       O  0.79990020  0.32313232  0.73230570    -0.40230
O3061       O  0.93762271  0.90691989  0.38974264    -0.80380
O3062       O  0.95217506  0.85914469  0.43702111    -0.80400
O3063       O  0.87082469  0.83454220  0.41325122    -0.80410
O3064       O  0.00221587  0.87163954  0.35939715    -0.80350
O3065       O  0.89142346  0.82210656  0.45488554    -0.80470
O3066       O  0.98505104  0.89598139  0.38846749    -0.80390
O3067       O  0.97536395  0.83647593  0.41218665    -0.80380
O3068       O  0.89055366  0.88078154  0.36912425    -0.80420
C3069       C  0.91290751  0.90615751  0.38129884     1.09310
C3070       C  0.97228441  0.85080496  0.43759638     1.09200
C3071       C  0.87242540  0.83007306  0.44457013     1.09330
C3072       C  0.00780506  0.89634158  0.37546902     1.09210
O3073       O  0.97193851  0.87712929  0.31585902    -0.80380
O3074       O  0.87327278  0.78733410  0.40160888    -0.80460
O3075       O  0.88899734  0.84148077  0.31447200    -0.80390
O3076       O  0.92546826  0.78915071  0.36831147    -0.80370
O3077       O  0.92293705  0.79291657  0.42132082    -0.80420
O3078       O  0.92634145  0.88973341  0.32097777    -0.80390
O3079       O  0.95150881  0.82637041  0.31669500    -0.80350
O3080       O  0.86652664  0.79265466  0.35127717    -0.80420
Co3081     Co  0.95400520  0.88963894  0.35574866     1.51530
Co3082     Co  0.91283395  0.82733640  0.41546601     1.51690
Co3083     Co  0.88288443  0.83711249  0.36255144     1.51570
Co3084     Co  0.96080815  0.83091518  0.36399895     1.51470
O3085       O  0.92821961  0.84504189  0.37079213    -1.42310
C3086       C  0.96493969  0.85088766  0.30125560     1.09240
C3087       C  0.85904095  0.77547408  0.37473403     1.09330
C3088       C  0.90318332  0.86868282  0.30458010     1.09270
C3089       C  0.92519705  0.77839591  0.39570705     1.09240
O3090       O  0.93579367  0.63768727  0.30241182    -0.80380
O3091       O  0.93799042  0.54866273  0.38267475    -0.80400
O3092       O  0.49145211  0.60916727  0.37428549    -0.80410
O3093       O  0.87528566  0.55096618  0.33593514    -0.80350
O3094       O  0.97957774  0.59168927  0.42344662    -0.80470
O3095       O  0.92216345  0.57987975  0.31707006    -0.80390
O3096       O  0.88869727  0.52274322  0.38206131    -0.80380
O3097       O  0.97696412  0.64248408  0.32971707    -0.80420
C3098       C  0.96409588  0.64484230  0.30299301     1.09310
C3099       C  0.91370584  0.52299024  0.37802736     1.09200
C3100       C  0.49766933  0.59935024  0.39963876     1.09330
C3101       C  0.89521777  0.55624473  0.31379223     1.09210
O3102       O  0.88006670  0.60213768  0.33661122    -0.80380
O3103       O  0.93897435  0.60954458  0.44965455    -0.80460
O3104       O  0.96777583  0.67298002  0.38962493    -0.80390
O3105       O  0.88361578  0.55803451  0.43638746    -0.80370
O3106       O  0.92206516  0.54904652  0.44816427    -0.80420
O3107       O  0.92361841  0.65202450  0.36322799    -0.80390
O3108       O  0.86839679  0.58963021  0.38808598    -0.80350
O3109       O  0.98373061  0.64363310  0.42975522    -0.80420
Co3110     Co  0.92530986  0.61649038  0.34177652     1.51530
Co3111     Co  0.93564770  0.57827115  0.41535469     1.51690
Co3112     Co  0.97558059  0.63825706  0.38081049     1.51570
Co3113     Co  0.88315544  0.55980521  0.38545377     1.51470
O3114       O  0.92879787  0.60058791  0.38289520    -1.42310
C3115       C  0.86285151  0.59790787  0.36124316     1.09240
C3116       C  0.96596838  0.63300386  0.45399307     1.09330
C3117       C  0.94447595  0.67410672  0.38068331     1.09270
C3118       C  0.89556473  0.54570015  0.45436777     1.09240
O3119       O  0.52101334  0.88893574  0.12200194    -0.80380
O3120       O  0.65061695  0.97316958  0.07841126    -0.80400
O3121       O  0.59679937  0.97918807  0.16754521    -0.80410
O3122       O  0.55426716  0.89785551  0.06171951    -0.80350
O3123       O  0.62355960  0.99339592  0.12280215    -0.80470
O3124       O  0.53636651  0.85545545  0.08665042    -0.80390
O3125       O  0.60542618  0.94969758  0.05448050    -0.80380
O3126       O  0.54125509  0.93704515  0.13937289    -0.80420
C3127       C  0.51860618  0.91265468  0.12653951     1.09310
C3128       C  0.63263045  0.97221987  0.05625240     1.09200
C3129       C  0.61031871  0.99891815  0.14648927     1.09330
C3130       C  0.53531417  0.86945577  0.06184619     1.09210
O3131       O  0.58695426  0.86833609  0.13572586    -0.80380
O3132       O  0.64279033  0.96886738  0.17274127    -0.80460
O3133       O  0.54148482  0.89091715  0.17963848    -0.80390
O3134       O  0.64261451  0.92034716  0.07512870    -0.80370
O3135       O  0.65276376  0.93402387  0.12745874    -0.80420
O3136       O  0.52616137  0.84556966  0.15380588    -0.80390
O3137       O  0.58982109  0.86790972  0.08185349    -0.80350
O3138       O  0.60279867  0.93095287  0.19409458    -0.80420
Co3139     Co  0.55621924  0.88108479  0.13045948     1.51530
Co3140     Co  0.63720726  0.96244431  0.12491640     1.51690
Co3141     Co  0.57303093  0.93345261  0.16405337     1.51570
Co3142     Co  0.59722920  0.91022109  0.07162549     1.51470
O3143       O  0.59122377  0.92437155  0.11908358    -1.42310
C3144       C  0.59144220  0.85732196  0.10908817     1.09240
C3145       C  0.62903664  0.95509059  0.19776141     1.09330
C3146       C  0.52472047  0.86125385  0.17859525     1.09270
C3147       C  0.65871546  0.92398584  0.10113255     1.09240
O3148       O  0.68514811  0.65221584  0.35003328    -0.80380
O3149       O  0.64529247  0.52062719  0.38999712    -0.80400
O3150       O  0.66359950  0.55604334  0.31450044    -0.80410
O3151       O  0.61270138  0.57965965  0.42538760    -0.80350
O3152       O  0.68631976  0.53554516  0.34110049    -0.80470
O3153       O  0.63474145  0.61406381  0.38766501    -0.80390
O3154       O  0.61870807  0.54310267  0.37643443    -0.80380
O3155       O  0.66340111  0.60982673  0.31871659    -0.80420
C3156       C  0.67210414  0.63817551  0.32259546     1.09310
C3157       C  0.61999022  0.51867465  0.38061983     1.09200
C3158       C  0.67076144  0.53543952  0.31627503     1.09330
C3159       C  0.61207097  0.59916554  0.40759023     1.09210
O3160       O  0.68563612  0.66234503  0.41866403    -0.80380
O3161       O  0.73416401  0.58537993  0.38396009    -0.80460
O3162       O  0.72979401  0.64302947  0.33838565    -0.80390
O3163       O  0.64588118  0.55472420  0.43907869    -0.80370
O3164       O  0.69411517  0.56746959  0.43517852    -0.80420
O3165       O  0.72840140  0.64831327  0.39263306    -0.80390
O3166       O  0.67284446  0.61772424  0.43992176    -0.80350
O3167       O  0.72983714  0.58950709  0.33066208    -0.80420
Co3168     Co  0.68285653  0.62903185  0.39079783     1.51530
Co3169     Co  0.68997501  0.55501267  0.38736658     1.51690
Co3170     Co  0.69506789  0.59873864  0.32788223     1.51570
Co3171     Co  0.64660723  0.58138299  0.40432164     1.51470
O3172       O  0.68105647  0.58901102  0.37472441    -1.42310
C3173       C  0.67757677  0.64573025  0.44349068     1.09240
C3174       C  0.74563458  0.59065697  0.35570339     1.09330
C3175       C  0.74284805  0.65726431  0.36593899     1.09270
C3176       C  0.66934116  0.55526714  0.45102668     1.09240
O3177       O  0.53889888  0.62214232  0.16775550    -0.80380
O3178       O  0.63525980  0.70362245  0.07193070    -0.80400
O3179       O  0.53190823  0.67900802  0.09759715    -0.80410
O3180       O  0.60037757  0.61836513  0.12828619    -0.80350
O3181       O  0.57084409  0.67866172  0.07238448    -0.80470
O3182       O  0.59187768  0.61912286  0.18088529    -0.80390
O3183       O  0.61731514  0.65582078  0.08089163    -0.80380
O3184       O  0.53967786  0.63147166  0.11493164    -0.80420
C3185       C  0.52684140  0.61431044  0.13854099     1.09310
C3186       C  0.63110941  0.67735905  0.06203368     1.09200
C3187       C  0.54322217  0.67498171  0.07125853     1.09330
C3188       C  0.59627647  0.60625117  0.15533178     1.09210
O3189       O  0.62443672  0.68339364  0.20386758    -0.80380
O3190       O  0.61030731  0.74053773  0.08814196    -0.80460
O3191       O  0.53452021  0.67120546  0.16192764    -0.80390
O3192       O  0.66609976  0.70648565  0.12444225    -0.80370
O3193       O  0.64306596  0.73329372  0.13674838    -0.80420
O3194       O  0.57301340  0.68693289  0.19588349    -0.80390
O3195       O  0.64826452  0.66466405  0.17368684    -0.80350
O3196       O  0.58211017  0.72445395  0.13276203    -0.80420
Co3197     Co  0.58283236  0.65437310  0.18471651     1.51530
Co3198     Co  0.60700178  0.70537324  0.10755715     1.51690
Co3199     Co  0.56226552  0.67672483  0.12355891     1.51570
Co3200     Co  0.63117386  0.66198409  0.12707123     1.51470
O3201       O  0.59804906  0.67219306  0.13970910    -1.42310
C3202       C  0.64486594  0.67575193  0.20143311     1.09240
C3203       C  0.59617454  0.74537126  0.11156993     1.09330
C3204       C  0.54505655  0.67857356  0.19116841     1.09270
C3205       C  0.66749278  0.73198815  0.13326142     1.09240
O3206       O  0.89908024  0.92852552  0.10480441    -0.80380
O3207       O  0.84790713  0.94272184  0.06004731    -0.80400
O3208       O  0.83874147  0.87768253  0.07688855    -0.80410
O3209       O  0.87904736  0.00438717  0.13467677    -0.80350
O3210       O  0.80409184  0.88139517  0.04699705    -0.80470
O3211       O  0.90106654  0.98285370  0.10768988    -0.80390
O3212       O  0.83326854  0.97300233  0.08645241    -0.80380
O3213       O  0.87450869  0.88482481  0.12784450    -0.80420
C3214       C  0.89893590  0.90495743  0.11427018     1.09310
C3215       C  0.84491043  0.96644388  0.06147736     1.09200
C3216       C  0.82278728  0.87156133  0.04981899     1.09330
C3217       C  0.90267851  0.00709267  0.11973775     1.09210
O3218       O  0.88890880  0.97792564  0.17973473    -0.80380
O3219       O  0.78746861  0.86894461  0.11121510    -0.80460
O3220       O  0.83531965  0.89031495  0.17580269    -0.80390
O3221       O  0.79074608  0.93279401  0.13538368    -0.80370
O3222       O  0.78649252  0.91716075  0.08366802    -0.80420
O3223       O  0.88595892  0.92315819  0.17450394    -0.80390
O3224       O  0.83868403  0.96199420  0.18200334    -0.80350
O3225       O  0.80987893  0.84296434  0.12771863    -0.80420
Co3226     Co  0.89190848  0.95234422  0.14011005     1.51530
Co3227     Co  0.82076926  0.90734895  0.08642695     1.51690
Co3228     Co  0.83471090  0.88656561  0.12692506     1.51570
Co3229     Co  0.83536954  0.96537068  0.13435345     1.51470
O3230       O  0.84726562  0.93189426  0.12597303    -1.42310
C3231       C  0.86554666  0.97557570  0.19548622     1.09240
C3232       C  0.78547733  0.84380689  0.12110214     1.09330
C3233       C  0.86237911  0.90256013  0.18895344     1.09270
C3234       C  0.77442910  0.92215439  0.10900499     1.09240
C3235       C  0.96019126  0.53302348  0.11536028    -0.12510
C3236       C  0.93398809  0.53603807  0.12188415     0.04500
C3237       C  0.93908277  0.56569308  0.13209127    -0.07800
C3238       C  0.96967726  0.59073270  0.13744438    -0.08540
C3239       C  0.99549792  0.58702656  0.13241693    -0.03090
C3240       C  0.99076790  0.55814015  0.11993545     0.03730
N3241       N  0.51641666  0.55377086  0.11171453     0.66230
H3242       H  0.95696435  0.51071791  0.10669829     0.15130
H3243       H  0.97332922  0.61332399  0.14569962     0.14840
N3244       N  0.91377797  0.57112842  0.13630782     0.73940
O3245       O  0.51326648  0.52718245  0.11236993    -0.39510
O3246       O  0.54063006  0.57514394  0.09946292    -0.39460
O3247       O  0.89818385  0.56312417  0.16216801    -0.40160
O3248       O  0.91169279  0.58986673  0.11838735    -0.40230
C3249       C  0.70794697  0.77168443  0.10115695    -0.12510
C3250       C  0.69745022  0.76121704  0.13259471     0.04500
C3251       C  0.71514649  0.77921561  0.16112257    -0.07800
C3252       C  0.74429247  0.80614559  0.15666421    -0.08540
C3253       C  0.75464650  0.81625048  0.12502042    -0.03090
C3254       C  0.73573592  0.79941729  0.09717052     0.03730
N3255       N  0.74422978  0.81033136  0.06470838     0.66230
H3256       H  0.69389418  0.75855463  0.07940724     0.15130
H3257       H  0.75882557  0.81980799  0.17790214     0.14840
N3258       N  0.70434872  0.77098231  0.19423237     0.73940
O3259       O  0.74488872  0.79258707  0.04183075    -0.39510
O3260       O  0.74388151  0.83432515  0.05737985    -0.39460
O3261       O  0.67673753  0.75010227  0.19929661    -0.40160
O3262       O  0.72181795  0.78632415  0.21890533    -0.40230
C3263       C  0.65051321  0.68136128  0.26303366    -0.12510
C3264       C  0.66006639  0.67432570  0.23268476     0.04500
C3265       C  0.67860994  0.66039987  0.23351243    -0.07800
C3266       C  0.68279358  0.64974115  0.26349349    -0.08540
C3267       C  0.67089390  0.65451025  0.29335180    -0.03090
C3268       C  0.65594371  0.67199027  0.29319797     0.03730
N3269       N  0.64413164  0.67862955  0.32276076     0.66230
H3270       H  0.63733920  0.69311753  0.26325608     0.15130
H3271       H  0.69553992  0.63753391  0.26357909     0.14840
N3272       N  0.69340476  0.65703349  0.20444116     0.73940
O3273       O  0.66152694  0.69037588  0.34825574    -0.39510
O3274       O  0.61882249  0.67852294  0.32148044    -0.39460
O3275       O  0.70745071  0.67952854  0.18612653    -0.40160
O3276       O  0.69691995  0.63386857  0.19999168    -0.40230
C3277       C  0.66940740  0.69421752  0.01554327    -0.12510
C3278       C  0.64289996  0.67077527  0.03051108     0.04500
C3279       C  0.62973057  0.63977417  0.01712969    -0.07800
C3280       C  0.64325211  0.63289576  0.49050630    -0.08540
C3281       C  0.66931747  0.65591278  0.47517060    -0.03090
C3282       C  0.68298217  0.68717789  0.48805349     0.03730
N3283       N  0.71127804  0.71150254  0.47499838     0.66230
H3284       H  0.68031130  0.71784153  0.02614671     0.15130
H3285       H  0.63226457  0.60891734  0.48111150     0.14840
N3286       N  0.60175583  0.61465621  0.02929165     0.73940
O3287       O  0.71816042  0.73948155  0.47904204    -0.39510
O3288       O  0.73133047  0.70566898  0.46324450    -0.39460
O3289       O  0.57793923  0.60100166  0.01039135    -0.40160
O3290       O  0.60355675  0.60057689  0.05331317    -0.40230
C3291       C  0.64575215  0.53916084  0.00519356    -0.12510
C3292       C  0.66556344  0.53831279  0.48104069     0.04500
C3293       C  0.67497339  0.01611054  0.48248787    -0.07800
C3294       C  0.66449754  0.99558998  0.50804429    -0.08540
C3295       C  0.64384354  0.99575842  0.03142823    -0.03090
C3296       C  0.63401865  0.51772993  0.02995800     0.03730
N3297       N  0.61183674  0.51841351  0.05241662     0.66230
H3298       H  0.63772937  0.55549532  0.00335333     0.15130
H3299       H  0.67154493  0.97841883  0.50884968     0.14840
N3300       N  0.69230926  0.01181964  0.45657753     0.73940
O3301       O  0.61039949  0.54280248  0.05682570    -0.39510
O3302       O  0.59089850  0.49388080  0.06434057    -0.39460
O3303       O  0.71923951  0.53356463  0.45050563    -0.40160
O3304       O  0.68277460  0.98499358  0.44331546    -0.40230
C3305       C  0.64823551  0.48170727  0.28971168    -0.12510
C3306       C  0.66402033  0.51407761  0.28700671     0.04500
C3307       C  0.66994898  0.52606048  0.25543902    -0.07800
C3308       C  0.65909918  0.50566951  0.22773034    -0.08540
C3309       C  0.64139225  0.97319594  0.22985761    -0.03090
C3310       C  0.63561117  0.96101649  0.26146462     0.03730
N3311       N  0.61660601  0.92833759  0.26561871     0.66230
H3312       H  0.64409916  0.97253696  0.31379794     0.15130
H3313       H  0.66388639  0.51588676  0.20397981     0.14840
N3314       N  0.68649799  0.55891987  0.25079495     0.73940
O3315       O  0.62536289  0.91565978  0.28562381    -0.39510
O3316       O  0.58861281  0.91394455  0.25540902    -0.39460
O3317       O  0.71198063  0.57670330  0.26604456    -0.40160
O3318       O  0.67814108  0.56946212  0.22789623    -0.40230
C3319       C  0.62558844  0.58070348  0.13785766    -0.12510
C3320       C  0.60150890  0.57993078  0.15682362     0.04500
C3321       C  0.58290517  0.55396868  0.17501097    -0.07800
C3322       C  0.58677397  0.52821871  0.17134906    -0.08540
C3323       C  0.60977619  0.52819356  0.15096953    -0.03090
C3324       C  0.63074329  0.55562867  0.13569315     0.03730
N3325       N  0.65800202  0.55910977  0.11960756     0.66230
H3326       H  0.64106717  0.60146596  0.12528239     0.15130
H3327       H  0.57130021  0.50787468  0.18449031     0.14840
N3328       N  0.55946585  0.55289102  0.19635724     0.73940
O3329       O  0.66906428  0.57658197  0.09584276    -0.39510
O3330       O  0.67426207  0.54967096  0.13290226    -0.39460
O3331       O  0.53230804  0.52949705  0.19448673    -0.40160
O3332       O  0.56728590  0.57201819  0.22105063    -0.40230
C3333       C  0.61501315  0.82820177  0.13079614    -0.12510
C3334       C  0.59375275  0.82921890  0.10912179     0.04500
C3335       C  0.57285380  0.80228328  0.08964166    -0.07800
C3336       C  0.57359083  0.77501071  0.09218246    -0.08540
C3337       C  0.59494639  0.77398583  0.11346157    -0.03090
C3338       C  0.61602951  0.80078942  0.13309544     0.03730
N3339       N  0.63855383  0.80071721  0.15502455     0.66230
H3340       H  0.63072433  0.84878936  0.14607297     0.15130
H3341       H  0.55761227  0.75449016  0.07696031     0.14840
N3342       N  0.54995599  0.80182400  0.06806261     0.73940
O3343       O  0.66474217  0.82504291  0.16035486    -0.39510
O3344       O  0.63130108  0.77753625  0.17173145    -0.39460
O3345       O  0.55821418  0.81543803  0.04141563    -0.40160
O3346       O  0.52149277  0.78277045  0.07210083    -0.40230
C3347       C  0.70043380  0.92224535  0.13261360    -0.12510
C3348       C  0.68615459  0.91931941  0.10164756     0.04500
C3349       C  0.69942969  0.91349495  0.07321546    -0.07800
C3350       C  0.72712616  0.91257084  0.07641698    -0.08540
C3351       C  0.74236514  0.91763837  0.10732858    -0.03090
C3352       C  0.72785851  0.92131500  0.13583660     0.03730
N3353       N  0.74057007  0.92433671  0.16841847     0.66230
H3354       H  0.69032374  0.92555979  0.15501597     0.15130
H3355       H  0.73760703  0.90941889  0.05423096     0.14840
N3356       N  0.68608341  0.90961590  0.04085197     0.73940
O3357       O  0.74310191  0.94547546  0.18885545    -0.39510
O3358       O  0.74475609  0.90322740  0.17833752    -0.39460
O3359       O  0.68520230  0.93192787  0.02891454    -0.40160
O3360       O  0.68131035  0.88668487  0.02192070    -0.40230
C3361       C  0.96066624  0.88167339  0.12390034    -0.12510
C3362       C  0.98817079  0.91019984  0.11987489     0.04500
C3363       C  0.98576355  0.93613869  0.11332214    -0.07800
C3364       C  0.95648666  0.93316694  0.11000659    -0.08540
C3365       C  0.92877997  0.90483591  0.11473261    -0.03090
C3366       C  0.93119027  0.87884682  0.12234526     0.03730
N3367       N  0.90453849  0.84993747  0.13016607     0.66230
H3368       H  0.96211343  0.86176391  0.13050908     0.15130
H3369       H  0.95568976  0.95383750  0.10522601     0.14840
N3370       N  0.51286035  0.96614574  0.11200910     0.73940
O3371       O  0.90018036  0.82498747  0.11582491    -0.39510
O3372       O  0.89062979  0.84856449  0.15662843    -0.39460
O3373       O  0.52770254  0.97423517  0.08566499    -0.40160
O3374       O  0.52346177  0.98348390  0.13807213    -0.40230
C3375       C  0.48596985  0.62241535  0.50327024    -0.12510
C3376       C  0.98041349  0.64332742  0.48727847     0.04500
C3377       C  0.49587207  0.67490448  0.49887780    -0.07800
C3378       C  0.51694030  0.68469722  0.02597285    -0.08540
C3379       C  0.52362259  0.66401983  0.04084912    -0.03090
C3380       C  0.50774146  0.63239357  0.02950142     0.03730
N3381       N  0.51385748  0.61026483  0.04361001     0.66230
H3382       H  0.47498002  0.59845365  0.49360463     0.15130
H3383       H  0.52825186  0.70864252  0.03564645     0.14840
N3384       N  0.99022661  0.69702404  0.48375746     0.73940
O3385       O  0.49229404  0.58235472  0.04510512    -0.39510
O3386       O  0.54151798  0.61714211  0.04924901    -0.39460
O3387       O  0.96489373  0.68809936  0.46837565    -0.40160
O3388       O  0.50924138  0.72581752  0.48827783    -0.40230
C3389       C  0.50224650  0.68023564  0.22174847    -0.12510
C3390       C  0.52403000  0.67047872  0.21938243     0.04500
C3391       C  0.52418066  0.65095216  0.24313801    -0.07800
C3392       C  0.50366947  0.64260499  0.26911061    -0.08540
C3393       C  0.98259626  0.65316253  0.27257396    -0.03090
C3394       C  0.98144621  0.67190360  0.24811301     0.03730
N3395       N  0.96059859  0.68373240  0.24995446     0.66230
H3396       H  0.50153844  0.69455740  0.20306080     0.15130
H3397       H  0.50441260  0.62763074  0.28699474     0.14840
N3398       N  0.54412941  0.63820853  0.24069778     0.73940
O3399       O  0.97004612  0.71117191  0.24222923    -0.39510
O3400       O  0.93171918  0.66529779  0.25188408    -0.39460
O3401       O  0.57216587  0.65471550  0.25040416    -0.40160
O3402       O  0.53218293  0.60910874  0.23718462    -0.40230
C3403       C  0.85762761  0.99575297  0.47526479    -0.12510
C3404       C  0.87875458  0.52739996  0.48217004     0.04500
C3405       C  0.88721311  0.53925447  0.01516445    -0.07800
C3406       C  0.87494389  0.51876709  0.04061160    -0.08540
C3407       C  0.85466733  0.98683337  0.03371643    -0.03090
C3408       C  0.84508574  0.97519527  0.50066389     0.03730
N3409       N  0.82236966  0.94308102  0.49245936     0.66230
H3410       H  0.85138877  0.98695654  0.44974961     0.15130
H3411       H  0.88171160  0.52773701  0.06598250     0.14840
N3412       N  0.90829130  0.57173594  0.02315899     0.73940
O3413       O  0.82195003  0.93092947  0.46422116    -0.39510
O3414       O  0.79982667  0.92833813  0.51110845    -0.39460
O3415       O  0.90595039  0.59186939  0.00805423    -0.40160
O3416       O  0.92646894  0.58034175  0.04808490    -0.40230
C3417       C  0.88627539  0.50760154  0.28511358    -0.12510
C3418       C  0.88634264  0.53549299  0.28351603     0.04500
C3419       C  0.87550559  0.54139004  0.25404687    -0.07800
C3420       C  0.86858671  0.52092100  0.22608797    -0.08540
C3421       C  0.87055491  0.99407725  0.22707528    -0.03090
C3422       C  0.87682865  0.98599828  0.25774029     0.03730
N3423       N  0.86972277  0.95495663  0.26268597     0.66230
H3424       H  0.89198949  0.50193053  0.30845981     0.15130
H3425       H  0.86127743  0.52581919  0.20322157     0.14840
N3426       N  0.86998585  0.56683228  0.25208923     0.73940
O3427       O  0.88125035  0.94974020  0.28744653    -0.39510
O3428       O  0.84623410  0.93245240  0.24793785    -0.39460
O3429       O  0.88658814  0.59218777  0.26847801    -0.40160
O3430       O  0.84924008  0.56453810  0.23246721    -0.40230
C3431       C  0.55336347  0.62352461  0.38996957    -0.12510
C3432       C  0.52653187  0.59879353  0.40251973     0.04500
C3433       C  0.52927116  0.57766614  0.42205280    -0.07800
C3434       C  0.55778944  0.57906580  0.42362429    -0.08540
C3435       C  0.58416803  0.60224713  0.40855869    -0.03090
C3436       C  0.58275534  0.62730363  0.39598503     0.03730
N3437       N  0.60981527  0.65798172  0.39538040     0.66230
H3438       H  0.55165727  0.64171948  0.37859601     0.15130
H3439       H  0.55924887  0.56181998  0.43717842     0.14840
N3440       N  0.50420606  0.55528713  0.44109417     0.73940
O3441       O  0.60699917  0.68003570  0.38580178    -0.39510
O3442       O  0.63347818  0.66493099  0.41295175    -0.39460
O3443       O  0.97709806  0.53883422  0.42876459    -0.40160
O3444       O  0.50995342  0.54941914  0.46922704    -0.40230
C3445       C  0.80143718  0.62047534  0.36965082    -0.12510
C3446       C  0.77673377  0.59528066  0.35187405     0.04500
C3447       C  0.78103165  0.57200166  0.33603569    -0.07800
C3448       C  0.81001390  0.57435056  0.33866000    -0.08540
C3449       C  0.83433974  0.59885805  0.35746397    -0.03090
C3450       C  0.83025722  0.62238496  0.37306991     0.03730
N3451       N  0.85448374  0.64767895  0.39304668     0.66230
H3452       H  0.79766249  0.63778684  0.38249785     0.15130
H3453       H  0.81325800  0.55624311  0.32695461     0.14840
N3454       N  0.75574996  0.54468341  0.31964744     0.73940
O3455       O  0.85697222  0.67409967  0.39402437    -0.39510
O3456       O  0.87011745  0.64263179  0.41352307    -0.39460
O3457       O  0.74069350  0.54716211  0.29631392    -0.40160
O3458       O  0.75164630  0.51824392  0.32489890    -0.40230
C3459       C  0.53219083  0.85923379  0.50188566    -0.12510
C3460       C  0.51587326  0.85471106  0.03137424     0.04500
C3461       C  0.98439376  0.84679027  0.02950505    -0.07800
C3462       C  0.97115664  0.84636520  0.99861080    -0.08540
C3463       C  0.98809048  0.85250123  0.46938707    -0.03090
C3464       C  0.51860505  0.85765944  0.47106163     0.03730
N3465       N  0.53695663  0.86355106  0.44218157     0.66230
H3466       H  0.55651589  0.86587543  0.50305342     0.15130
H3467       H  0.94717052  0.84075122  0.99722154     0.14840
N3468       N  0.96583172  0.83983402  0.05849421     0.73940
O3469       O  0.56261649  0.88868739  0.44111491    -0.39510
O3470       O  0.53104529  0.84145841  0.42137915    -0.39460
O3471       O  0.44104721  0.84077826  0.05821089    -0.40160
O3472       O  0.97161323  0.82849030  0.08263449    -0.40230
C3473       C  0.49105071  0.83187975  0.26163473    -0.12510
C3474       C  0.97609633  0.84913238  0.26747659     0.04500
C3475       C  0.97275978  0.86449382  0.24113093    -0.07800
C3476       C  0.48424906  0.86252022  0.21021442    -0.08540
C3477       C  0.50205760  0.84829522  0.20523007    -0.03090
C3478       C  0.50503295  0.83202001  0.23113028     0.03730
N3479       N  0.52348522  0.81738717  0.22783286     0.66230
H3480       H  0.49346475  0.81975235  0.28170308     0.15130
H3481       H  0.48276260  0.87591958  0.19090303     0.14840
N3482       N  0.96058513  0.88471469  0.24577021     0.73940
O3483       O  0.53352686  0.81129193  0.25318611    -0.39510
O3484       O  0.52811410  0.80854175  0.19977948    -0.39460
O3485       O  0.97556776  0.90892610  0.26448833    -0.40160
O3486       O  0.94199547  0.88390037  0.22418533    -0.40230
C3487       C  0.94060008  0.96413674  0.37857832    -0.12510
C3488       C  0.91209938  0.93575062  0.37931322     0.04500
C3489       C  0.88439230  0.93639585  0.37271984    -0.07800
C3490       C  0.88565127  0.96505758  0.37222712    -0.08540
C3491       C  0.91402392  0.99328970  0.37270237    -0.03090
C3492       C  0.94177863  0.99213696  0.37184384     0.03730
N3493       N  0.97044943  0.51787185  0.36113230     0.66230
H3494       H  0.96213918  0.96389704  0.37975140     0.15130
H3495       H  0.86406961  0.96513898  0.37016628     0.14840
N3496       N  0.85502744  0.90875590  0.36479096     0.73940
O3497       O  0.99606001  0.51977884  0.36772471    -0.39510
O3498       O  0.96978390  0.53473647  0.33946656    -0.39460
O3499       O  0.83067060  0.90603848  0.37742459    -0.40160
O3500       O  0.85225305  0.89251955  0.33871264    -0.40230
C3501       C  0.93016035  0.70692067  0.41650412    -0.12510
C3502       C  0.94301766  0.70252344  0.38732089     0.04500
C3503       C  0.95246588  0.72446198  0.36308867    -0.07800
C3504       C  0.94660660  0.74884705  0.36754429    -0.08540
C3505       C  0.93240449  0.75289074  0.39597439    -0.03090
C3506       C  0.92558256  0.73241586  0.42166709     0.03730
N3507       N  0.91395939  0.73665713  0.45271516     0.66230
H3508       H  0.92337415  0.69027158  0.43528166     0.15130
H3509       H  0.95367890  0.76520021  0.34835159     0.14840
N3510       N  0.96774923  0.72231452  0.33367209     0.73940
O3511       O  0.89355464  0.71326136  0.46688479    -0.39510
O3512       O  0.92852652  0.76240891  0.46912282    -0.39460
O3513       O  0.98663105  0.71263834  0.33472234    -0.40160
O3514       O  0.46579483  0.73413217  0.30771850    -0.40230
C3515       C  0.53684865  0.95296112  0.38867053    -0.12510
C3516       C  0.53760271  0.92678868  0.37535821     0.04500
C3517       C  0.56608690  0.93124014  0.36315552    -0.07800
C3518       C  0.59273861  0.96134174  0.36543720    -0.08420
C3519       C  0.59137309  0.98739849  0.37798745    -0.03090
C3520       C  0.56310053  0.98266742  0.39050446     0.03730
N3521       N  0.56127540  0.50689176  0.40872841     0.66230
H3522       H  0.51569436  0.95043716  0.39896857     0.15130
H3523       H  0.61461617  0.96443081  0.35729042     0.14840
N3524       N  0.56863812  0.90594782  0.34854267     0.73940
O3525       O  0.53828966  0.51026755  0.40370380    -0.39510
O3526       O  0.57698252  0.51821376  0.43535972    -0.39460
O3527       O  0.55247988  0.89098196  0.32301048    -0.40160
O3528       O  0.59127522  0.90290779  0.35667509    -0.40230
C3529       C  0.79030225  0.69762443  0.39728710    -0.12510
C3530       C  0.77419247  0.68593527  0.36682317     0.04500
C3531       C  0.78777430  0.70278923  0.33846093    -0.07800
C3532       C  0.81671153  0.73050860  0.34132285    -0.08540
C3533       C  0.83212068  0.74294277  0.37208051    -0.03090
C3534       C  0.81868333  0.72578102  0.40036970     0.03730
N3535       N  0.83249718  0.73709605  0.43277303     0.66230
H3536       H  0.78046816  0.68509919  0.41929489     0.15130
H3537       H  0.82612402  0.74350488  0.31951613     0.14840
N3538       N  0.77140866  0.69395607  0.30718890     0.73940
O3539       O  0.81640328  0.73860428  0.45608284    -0.39510
O3540       O  0.85848364  0.73991553  0.43940430    -0.39460
O3541       O  0.74658343  0.69458954  0.30434913    -0.40160
O3542       O  0.78498808  0.69250817  0.28143516    -0.40230
C3543       C  0.84804505  0.82241467  0.49971970    -0.12510
C3544       C  0.85321858  0.83570196  0.46898237     0.04500
C3545       C  0.84350278  0.85732823  0.46412102    -0.07800
C3546       C  0.83160122  0.86707221  0.49036701    -0.08540
C3547       C  0.82909998  0.85586171  0.02162764    -0.03090
C3548       C  0.83603496  0.83219691  0.02591441     0.03730
N3549       N  0.83092038  0.81776742  0.05660813     0.66230
H3550       H  0.85449435  0.80519634  0.50390953     0.15130
H3551       H  0.82592087  0.88488876  0.48671357     0.14840
N3552       N  0.84796614  0.87183736  0.43369743     0.73940
O3553       O  0.80946513  0.78986228  0.05829160    -0.39510
O3554       O  0.85159438  0.83017910  0.07925680    -0.39460
O3555       O  0.83161254  0.85598820  0.40860959    -0.40160
O3556       O  0.86208880  0.90110222  0.43410368    -0.40230
C3557       C  0.89684997  0.91460100  0.23665128    -0.12510
C3558       C  0.86919427  0.89268918  0.22000416     0.04500
C3559       C  0.85181206  0.86269575  0.23198507    -0.07800
C3560       C  0.86327544  0.85532018  0.25962409    -0.08540
C3561       C  0.89155270  0.87738333  0.27578743    -0.03090
C3562       C  0.90778600  0.90798642  0.26454309     0.03730
N3563       N  0.93501348  0.93327133  0.28103135     0.66230
H3564       H  0.91002029  0.93804868  0.22846123     0.15130
H3565       H  0.85020070  0.83201100  0.26811333     0.14840
N3566       N  0.82369901  0.83902249  0.21562823     0.73940
O3567       O  0.95765966  0.95148927  0.26408705    -0.39510
O3568       O  0.93252066  0.94293440  0.30951677    -0.39460
O3569       O  0.82464018  0.82951729  0.18647157    -0.40160
O3570       O  0.79989717  0.82313183  0.23230615    -0.40230
O3571       O  0.93762361  0.90691891  0.88974554    -0.80380
O3572       O  0.95217579  0.85914174  0.93702324    -0.80400
O3573       O  0.87082497  0.83454107  0.91325235    -0.80410
O3574       O  0.00221548  0.87163720  0.85939772    -0.80350
O3575       O  0.89142293  0.82210488  0.95488694    -0.80470
O3576       O  0.98505190  0.89597975  0.88846921    -0.80390
O3577       O  0.97536366  0.83647287  0.91218568    -0.80380
O3578       O  0.89055476  0.88078113  0.86912651    -0.80420
C3579       C  0.91290859  0.90615682  0.88130163     1.09310
C3580       C  0.97228606  0.85080304  0.93759541     1.09200
C3581       C  0.87242508  0.83007158  0.94457122     1.09330
C3582       C  0.00780552  0.89633925  0.87547027     1.09210
O3583       O  0.97193848  0.87712858  0.81586142    -0.80380
O3584       O  0.87327268  0.78733305  0.90160969    -0.80460
O3585       O  0.88899826  0.84148131  0.81447325    -0.80390
O3586       O  0.92546721  0.78914843  0.86831181    -0.80370
O3587       O  0.92293655  0.79291432  0.92132142    -0.80420
O3588       O  0.92634230  0.88973392  0.82098009    -0.80390
O3589       O  0.95150718  0.82636931  0.81669555    -0.80350
O3590       O  0.86652690  0.79265423  0.85127798    -0.80420
Co3591     Co  0.95400577  0.88963818  0.85575102     1.51530
Co3592     Co  0.91283417  0.82733469  0.91546756     1.51690
Co3593     Co  0.88288499  0.83711204  0.86255275     1.51570
Co3594     Co  0.96080725  0.83091298  0.86399903     1.51470
O3595       O  0.92821981  0.84504086  0.87079383    -1.42310
C3596       C  0.96493913  0.85088716  0.80125728     1.09240
C3597       C  0.85904087  0.77547344  0.87473472     1.09330
C3598       C  0.90318434  0.86868361  0.80458183     1.09270
C3599       C  0.92519630  0.77839367  0.89570745     1.09240
O3600       O  0.93579512  0.63768808  0.80241378    -0.80380
O3601       O  0.93799184  0.54866184  0.88267688    -0.80400
O3602       O  0.49145295  0.60916550  0.87428643    -0.80410
O3603       O  0.87528692  0.55096533  0.83593595    -0.80350
O3604       O  0.97957885  0.59168902  0.92344819    -0.80470
O3605       O  0.92216432  0.57987963  0.81707004    -0.80390
O3606       O  0.88869865  0.52274241  0.88206188    -0.80380
O3607       O  0.97696521  0.64248168  0.82971680    -0.80420
C3608       C  0.96409684  0.64484136  0.80299369     1.09310
C3609       C  0.91370731  0.52298945  0.87802886     1.09200
C3610       C  0.49767021  0.59934900  0.89964011     1.09330
C3611       C  0.89521883  0.55624416  0.81379274     1.09210
O3612       O  0.88006770  0.60213689  0.83661217    -0.80380
O3613       O  0.93897492  0.60954465  0.94965447    -0.80460
O3614       O  0.96777842  0.67297980  0.88962327    -0.80390
O3615       O  0.88361706  0.55803373  0.93638810    -0.80370
O3616       O  0.92206690  0.54904675  0.94816601    -0.80420
O3617       O  0.92361886  0.65202314  0.86323069    -0.80390
O3618       O  0.86839822  0.58962935  0.88808694    -0.80350
O3619       O  0.98373150  0.64363257  0.92975506    -0.80420
Co3620     Co  0.92531078  0.61648989  0.84177767     1.51530
Co3621     Co  0.93564873  0.57827063  0.91535585     1.51690
Co3622     Co  0.97558194  0.63825578  0.88081025     1.51570
Co3623     Co  0.88315677  0.55980432  0.88545444     1.51470
O3624       O  0.92879923  0.60058673  0.88289546    -1.42310
C3625       C  0.86285264  0.59790688  0.86124423     1.09240
C3626       C  0.96596895  0.63300394  0.95399280     1.09330
C3627       C  0.94447779  0.67410616  0.88068386     1.09270
C3628       C  0.89556612  0.54569975  0.95436879     1.09240
O3629       O  0.52101663  0.88894232  0.62201003    -0.80380
O3630       O  0.65061640  0.97316940  0.57840899    -0.80400
O3631       O  0.59680853  0.97919341  0.66754803    -0.80410
O3632       O  0.55426529  0.89785658  0.56171814    -0.80350
O3633       O  0.62356493  0.99340013  0.62280255    -0.80470
O3634       O  0.53636415  0.85545902  0.58665490    -0.80390
O3635       O  0.60542439  0.94969854  0.55448127    -0.80380
O3636       O  0.54126239  0.93705286  0.63937762    -0.80420
C3637       C  0.51861132  0.91266231  0.62654818     1.09310
C3638       C  0.63262846  0.97222083  0.55625264     1.09200
C3639       C  0.61032703  0.99892361  0.64649188     1.09330
C3640       C  0.53530975  0.86945771  0.56185008     1.09210
O3641       O  0.58695615  0.86833887  0.63572459    -0.80380
O3642       O  0.64279617  0.96886973  0.67273963    -0.80460
O3643       O  0.54149078  0.89092310  0.67964298    -0.80390
O3644       O  0.64261316  0.92034660  0.57512662    -0.80370
O3645       O  0.65276431  0.93402414  0.62745624    -0.80420
O3646       O  0.52616558  0.84557514  0.65381032    -0.80390
O3647       O  0.58981788  0.86790962  0.58185184    -0.80350
O3648       O  0.60280565  0.93095485  0.69409336    -0.80420
Co3649     Co  0.55622197  0.88108928  0.63046227     1.51530
Co3650     Co  0.63721023  0.96244639  0.62491499     1.51690
Co3651     Co  0.57303770  0.93345756  0.66405551     1.51570
Co3652     Co  0.59722768  0.91022178  0.57162474     1.51470
O3653       O  0.59122591  0.92437466  0.61908361    -1.42310
C3654       C  0.59144103  0.85732291  0.60908644     1.09240
C3655       C  0.62904371  0.95509226  0.69775993     1.09330
C3656       C  0.52472599  0.86125976  0.67859994     1.09270
C3657       C  0.65871490  0.92398539  0.60112999     1.09240
O3658       O  0.68514743  0.65221337  0.85003261    -0.80380
O3659       O  0.64529484  0.52062516  0.88999650    -0.80400
O3660       O  0.66360186  0.55604199  0.81449922    -0.80410
O3661       O  0.61270132  0.57965600  0.92538679    -0.80350
O3662       O  0.68632254  0.53554466  0.84110018    -0.80470
O3663       O  0.63474129  0.61406079  0.88766468    -0.80390
O3664       O  0.61870937  0.54309952  0.87643387    -0.80380
O3665       O  0.66340182  0.60982456  0.81871533    -0.80420
C3666       C  0.67210398  0.63817312  0.82259452     1.09310
C3667       C  0.61999206  0.51867188  0.88061958     1.09200
C3668       C  0.67076435  0.53543867  0.81627438     1.09330
C3669       C  0.61207088  0.59916222  0.90758990     1.09210
O3670       O  0.68563558  0.66234248  0.91866362    -0.80380
O3671       O  0.73416576  0.58538013  0.88395998    -0.80460
O3672       O  0.72979443  0.64302860  0.83838530    -0.80390
O3673       O  0.64588307  0.55472183  0.93907804    -0.80370
O3674       O  0.69411754  0.56746911  0.93517747    -0.80420
O3675       O  0.72840146  0.64831179  0.89263267    -0.80390
O3676       O  0.67284407  0.61772173  0.93992138    -0.80350
O3677       O  0.72983919  0.58950699  0.83066198    -0.80420
Co3678     Co  0.68285653  0.62902963  0.89079732     1.51530
Co3679     Co  0.68997715  0.55501187  0.88736602     1.51690
Co3680     Co  0.69506923  0.59873747  0.82788158     1.51570
Co3681     Co  0.64660773  0.58138022  0.90432103     1.51470
O3682       O  0.68105727  0.58900926  0.87472369    -1.42310
C3683       C  0.67757622  0.64572770  0.94349027     1.09240
C3684       C  0.74563648  0.59065702  0.85570345     1.09330
C3685       C  0.74284815  0.65726337  0.86593874     1.09270
C3686       C  0.66934368  0.55526555  0.95102553     1.09240
O3687       O  0.53889968  0.62214409  0.66775628    -0.80380
O3688       O  0.63526012  0.70362440  0.57193087    -0.80400
O3689       O  0.53190806  0.67900893  0.59759755    -0.80410
O3690       O  0.60037654  0.61836585  0.62828545    -0.80350
O3691       O  0.57084432  0.67866342  0.57238484    -0.80470
O3692       O  0.59187834  0.61912390  0.68088484    -0.80390
O3693       O  0.61731476  0.65582253  0.58089136    -0.80380
O3694       O  0.53967803  0.63147299  0.61493239    -0.80420
C3695       C  0.52684137  0.61431257  0.63854220     1.09310
C3696       C  0.63110946  0.67736097  0.56203368     1.09200
C3697       C  0.54322211  0.67498278  0.57125893     1.09330
C3698       C  0.59627675  0.60625212  0.65533109     1.09210
O3699       O  0.62443778  0.68339475  0.70386741    -0.80380
O3700       O  0.61030772  0.74053965  0.58814231    -0.80460
O3701       O  0.53452094  0.67120724  0.66192829    -0.80390
O3702       O  0.66610017  0.70648672  0.62444217    -0.80370
O3703       O  0.64306712  0.73329566  0.63674808    -0.80420
O3704       O  0.57301423  0.68693420  0.69588405    -0.80390
O3705       O  0.64826463  0.66466440  0.67368628    -0.80350
O3706       O  0.58211007  0.72445536  0.63276196    -0.80420
Co3707     Co  0.58283320  0.65437444  0.68471669     1.51530
Co3708     Co  0.60700234  0.70537514  0.60755741     1.51690
Co3709     Co  0.56226572  0.67672622  0.62355919     1.51570
Co3710     Co  0.63117370  0.66198507  0.62707079     1.51470
O3711       O  0.59804959  0.67219481  0.63970929    -1.42310
C3712       C  0.64486638  0.67575222  0.70143280     1.09240
C3713       C  0.59617437  0.74537278  0.61156995     1.09330
C3714       C  0.54505734  0.67857489  0.69116907     1.09270
C3715       C  0.66749375  0.73198960  0.63326110     1.09240
O3716       O  0.89908502  0.92853144  0.60480253    -0.80380
O3717       O  0.84790786  0.94272371  0.56004741    -0.80400
O3718       O  0.83874376  0.87768501  0.57688731    -0.80410
O3719       O  0.87904664  0.00438835  0.63467937    -0.80350
O3720       O  0.80409313  0.88139704  0.54699684    -0.80470
O3721       O  0.90106665  0.98285670  0.60769113    -0.80390
O3722       O  0.83326921  0.97300389  0.58645324    -0.80380
O3723       O  0.87451371  0.88482956  0.62784063    -0.80420
C3724       C  0.89894068  0.90496269  0.61426570     1.09310
C3725       C  0.84491090  0.96644560  0.56147783     1.09200
C3726       C  0.82278905  0.87156375  0.54981810     1.09330
C3727       C  0.90267836  0.00709489  0.61974096     1.09210
O3728       O  0.88890860  0.97792547  0.67973571    -0.80380
O3729       O  0.78747082  0.86894561  0.61121516    -0.80460
O3730       O  0.83532341  0.89031632  0.67580170    -0.80390
O3731       O  0.79074586  0.93279383  0.63538333    -0.80370
O3732       O  0.78649334  0.91716155  0.58366760    -0.80420
O3733       O  0.88596256  0.92315963  0.67450280    -0.80390
O3734       O  0.83868357  0.96199344  0.68200392    -0.80350
O3735       O  0.80988245  0.84296599  0.62771701    -0.80420
Co3736     Co  0.89191034  0.95234662  0.64010992     1.51530
Co3737     Co  0.82077061  0.90735047  0.58642685     1.51690
Co3738     Co  0.83471402  0.88656765  0.62692394     1.51570
Co3739     Co  0.83536946  0.96537110  0.63435419     1.51470
O3740       O  0.84726719  0.93189579  0.62597278    -1.42310
C3741       C  0.86554615  0.97557489  0.69548702     1.09240
C3742       C  0.78548024  0.84380795  0.62110154     1.09330
C3743       C  0.86238284  0.90256138  0.68895241     1.09270
C3744       C  0.77442931  0.92215465  0.60900429     1.09240
C3745       C  0.96019181  0.53302273  0.61537950    -0.12510
C3746       C  0.93398810  0.53603959  0.62189116     0.04500
C3747       C  0.93908218  0.56569672  0.63208796    -0.07800
C3748       C  0.96967668  0.59073780  0.63743728    -0.08540
C3749       C  0.99549723  0.58702974  0.63241980    -0.03090
C3750       C  0.99076751  0.55813992  0.61995455     0.03730
N3751       N  0.51641725  0.55376790  0.61175261     0.66230
H3752       H  0.95696672  0.51071534  0.60672807     0.15130
H3753       H  0.97332870  0.61333102  0.64568365     0.14840
N3754       N  0.91377698  0.57113221  0.63629988     0.73940
O3755       O  0.51327831  0.52718789  0.61246640    -0.39510
O3756       O  0.54061950  0.57512434  0.59946614    -0.39460
O3757       O  0.89817674  0.56312322  0.66215575    -0.40160
O3758       O  0.91169746  0.58987541  0.61838217    -0.40230
C3759       C  0.70794814  0.77168644  0.60115670    -0.12510
C3760       C  0.69745173  0.76121834  0.63259433     0.04500
C3761       C  0.71514912  0.77921583  0.66112213    -0.07800
C3762       C  0.74429566  0.80614535  0.65666376    -0.08540
C3763       C  0.75464938  0.81625101  0.62502004    -0.03090
C3764       C  0.73573769  0.79941889  0.59717034     0.03730
N3765       N  0.74423097  0.81033368  0.56470841     0.66230
H3766       H  0.69389465  0.75855753  0.57940704     0.15130
H3767       H  0.75882926  0.81980699  0.67790170     0.14840
N3768       N  0.70435175  0.77098197  0.69423192     0.73940
O3769       O  0.74488913  0.79258971  0.54182987    -0.39510
O3770       O  0.74388261  0.83432772  0.55738110    -0.39460
O3771       O  0.67673931  0.75010501  0.69929639    -0.40160
O3772       O  0.72182271  0.78632094  0.71890480    -0.40230
C3773       C  0.65051222  0.68135907  0.76303356    -0.12510
C3774       C  0.66006605  0.67432463  0.73268446     0.04500
C3775       C  0.67860961  0.66039877  0.73351170    -0.07800
C3776       C  0.68279319  0.64973951  0.76349247    -0.08540
C3777       C  0.67089324  0.65450785  0.79335097    -0.03090
C3778       C  0.65594249  0.67198734  0.79319752     0.03730
N3779       N  0.64412958  0.67862529  0.82276038     0.66230
H3780       H  0.63733796  0.69311507  0.76325644     0.15130
H3781       H  0.69553978  0.63753252  0.76357770     0.14840
N3782       N  0.69340460  0.65703297  0.70444028     0.73940
O3783       O  0.66152492  0.69037269  0.84825521    -0.39510
O3784       O  0.61881926  0.67851641  0.82148024    -0.39460
O3785       O  0.70745066  0.67952840  0.68612615    -0.40160
O3786       O  0.69691967  0.63386802  0.69999011    -0.40230
C3787       C  0.66940755  0.69421983  0.51554349    -0.12510
C3788       C  0.64290021  0.67077739  0.53051123     0.04500
C3789       C  0.62973105  0.63977634  0.51712988    -0.07800
C3790       C  0.64325136  0.63289344  0.99050586    -0.08540
C3791       C  0.66931689  0.65591029  0.97517022    -0.03090
C3792       C  0.68298189  0.68717540  0.98805325     0.03730
N3793       N  0.71127798  0.71149984  0.97499828     0.66230
H3794       H  0.68031123  0.71784383  0.52614689     0.15130
H3795       H  0.63226357  0.60891504  0.98111091     0.14840
N3796       N  0.60175615  0.61465834  0.52929149     0.73940
O3797       O  0.71816078  0.73947897  0.97904209    -0.39510
O3798       O  0.73133018  0.70566594  0.96324442    -0.39460
O3799       O  0.57793954  0.60100438  0.51039116    -0.40160
O3800       O  0.60355677  0.60057852  0.55331269    -0.40230
C3801       C  0.64574485  0.53915907  0.50519314    -0.12510
C3802       C  0.66556725  0.53831143  0.98103917     0.04500
C3803       C  0.67497405  0.01610647  0.98248459    -0.07800
C3804       C  0.66449800  0.99558603  0.00804133    -0.08540
C3805       C  0.64384015  0.99575941  0.53142914    -0.03090
C3806       C  0.63401143  0.51772769  0.52995749     0.03730
N3807       N  0.61182788  0.51840946  0.55241569     0.66230
H3808       H  0.63771981  0.55549162  0.50335172     0.15130
H3809       H  0.67154282  0.97841287  0.00884546     0.14840
N3810       N  0.69230705  0.01181330  0.95657254     0.73940
O3811       O  0.61039242  0.54279922  0.55682756    -0.39510
O3812       O  0.59088759  0.49387595  0.56433718    -0.39460
O3813       O  0.71923634  0.53355744  0.95049665    -0.40160
O3814       O  0.68277080  0.98498636  0.94331214    -0.40230
C3815       C  0.64823709  0.48170706  0.78970986    -0.12510
C3816       C  0.66402467  0.51407701  0.78700650     0.04500
C3817       C  0.66995786  0.52606056  0.75543888    -0.07800
C3818       C  0.65911079  0.50567000  0.72773009    -0.08540
C3819       C  0.64140037  0.97319668  0.72985628    -0.03090
C3820       C  0.63561403  0.96101659  0.76146340     0.03730
N3821       N  0.61660446  0.92833810  0.76561647     0.66230
H3822       H  0.64409496  0.97253378  0.81380276     0.15130
H3823       H  0.66390220  0.51588840  0.70397865     0.14840
N3824       N  0.68650731  0.55891997  0.75079553     0.73940
O3825       O  0.62535813  0.91565706  0.78562107    -0.39510
O3826       O  0.58861099  0.91394957  0.75540808    -0.39460
O3827       O  0.71198955  0.57670302  0.76604585    -0.40160
O3828       O  0.67815130  0.56946256  0.72789631    -0.40230
C3829       C  0.62559097  0.58070662  0.63785574    -0.12510
C3830       C  0.60151183  0.57993323  0.65682327     0.04500
C3831       C  0.58291221  0.55397249  0.67501423    -0.07800
C3832       C  0.58678637  0.52822571  0.67135711    -0.08540
C3833       C  0.60978576  0.52819970  0.65097370    -0.03090
C3834       C  0.63074849  0.55563334  0.63569232     0.03730
N3835       N  0.65800545  0.55911459  0.61960242     0.66230
H3836       H  0.64106678  0.60146813  0.62527752     0.15130
H3837       H  0.57131608  0.50788316  0.68450226     0.14840
N3838       N  0.55946802  0.55289034  0.69635555     0.73940
O3839       O  0.66906392  0.57658548  0.59583610    -0.39510
O3840       O  0.67426776  0.54967680  0.63289398    -0.39460
O3841       O  0.53231269  0.52949234  0.69448220    -0.40160
O3842       O  0.56728172  0.57201725  0.72104840    -0.40230
C3843       C  0.61501471  0.82820434  0.63079168    -0.12510
C3844       C  0.59375133  0.82921971  0.60912031     0.04500
C3845       C  0.57284950  0.80228246  0.58964413    -0.07800
C3846       C  0.57358687  0.77501009  0.59218563    -0.08540
C3847       C  0.59494563  0.77398707  0.61346150    -0.03090
C3848       C  0.61603138  0.80079224  0.63309165     0.03730
N3849       N  0.63855825  0.80072163  0.65501811     0.66230
H3850       H  0.63072796  0.84879314  0.64606576     0.15130
H3851       H  0.55760625  0.75448830  0.57696630     0.14840
N3852       N  0.54994891  0.80182157  0.56806815     0.73940
O3853       O  0.66474709  0.82504756  0.66034470    -0.39510
O3854       O  0.63130731  0.77754223  0.67172698    -0.39460
O3855       O  0.55820376  0.81543421  0.54142015    -0.40160
O3856       O  0.52148641  0.78276761  0.57210976    -0.40230
C3857       C  0.70043252  0.92224369  0.63261132    -0.12510
C3858       C  0.68615396  0.91931859  0.60164500     0.04500
C3859       C  0.69943002  0.91349522  0.57321310    -0.07800
C3860       C  0.72712675  0.91257148  0.57641514    -0.08540
C3861       C  0.74236511  0.91763836  0.60732710    -0.03090
C3862       C  0.72785750  0.92131385  0.63583483     0.03730
N3863       N  0.74056832  0.92433494  0.66841696     0.66230
H3864       H  0.69032176  0.92555718  0.65501362     0.15130
H3865       H  0.73760832  0.90942034  0.55422928     0.14840
N3866       N  0.68608445  0.90961690  0.54084937     0.73940
O3867       O  0.74309898  0.94547283  0.68885448    -0.39510
O3868       O  0.74475473  0.90322574  0.67833557    -0.39460
O3869       O  0.68520172  0.93192847  0.52891314    -0.40160
O3870       O  0.68131319  0.88668712  0.52191702    -0.40230
C3871       C  0.96067211  0.88168748  0.62393961    -0.12510
C3872       C  0.98817563  0.91020767  0.61988914     0.04500
C3873       C  0.98576851  0.93613794  0.61329430    -0.07800
C3874       C  0.95649058  0.93316292  0.60996435    -0.08540
C3875       C  0.92878455  0.90483986  0.61472423    -0.03090
C3876       C  0.93119644  0.87885940  0.62237146     0.03730
N3877       N  0.90454538  0.84995550  0.63020638     0.66230
H3878       H  0.96211982  0.86178401  0.63057144     0.15130
H3879       H  0.95569291  0.95382685  0.60515131     0.14840
N3880       N  0.51286715  0.96613945  0.61194514     0.73940
O3881       O  0.90018170  0.82499994  0.61587435    -0.39510
O3882       O  0.89064484  0.84859421  0.65667181    -0.39460
O3883       O  0.52755925  0.97429219  0.58551783    -0.40160
O3884       O  0.52355204  0.98346619  0.63800630    -0.40230
C3885       C  0.48596970  0.62241512  0.00326997    -0.12510
C3886       C  0.98041381  0.64332752  0.98727816     0.04500
C3887       C  0.49587294  0.67490461  0.99887742    -0.07800
C3888       C  0.51693967  0.68469748  0.52597308    -0.08540
C3889       C  0.52362240  0.66402044  0.54084949    -0.03090
C3890       C  0.50774147  0.63239408  0.52950200     0.03730
N3891       N  0.51385711  0.61026540  0.54361152     0.66230
H3892       H  0.47497959  0.59845342  0.99360429     0.15130
H3893       H  0.52825093  0.70864279  0.53564660     0.14840
N3894       N  0.99022823  0.69702461  0.98375675     0.73940
O3895       O  0.49229322  0.58235567  0.54510817    -0.39510
O3896       O  0.54151743  0.61714238  0.54925121    -0.39460
O3897       O  0.96489594  0.68810039  0.96837390    -0.40160
O3898       O  0.50924339  0.72581797  0.98827749    -0.40230
C3899       C  0.50224691  0.68023584  0.72174952    -0.12510
C3900       C  0.52403063  0.67047921  0.71938300     0.04500
C3901       C  0.52418098  0.65095173  0.74313765    -0.07800
C3902       C  0.50366959  0.64260378  0.76911007    -0.08540
C3903       C  0.98259649  0.65316140  0.77257416    -0.03090
C3904       C  0.98144639  0.67190296  0.74811388     0.03730
N3905       N  0.96059812  0.68373094  0.74995565     0.66230
H3906       H  0.50153883  0.69455802  0.70306236     0.15130
H3907       H  0.50441266  0.62762903  0.78699361     0.14840
N3908       N  0.54412965  0.63820804  0.74069673     0.73940
O3909       O  0.97004523  0.71117072  0.74223169    -0.39510
O3910       O  0.93171871  0.66529553  0.75188384    -0.39460
O3911       O  0.57216643  0.65471518  0.75040193    -0.40160
O3912       O  0.53218306  0.60910818  0.73718449    -0.40230
C3913       C  0.85762886  0.99575223  0.97526476    -0.12510
C3914       C  0.87875561  0.52739919  0.98217057     0.04500
C3915       C  0.88721267  0.53925561  0.51516377    -0.07800
C3916       C  0.87494394  0.51876858  0.54061133    -0.08540
C3917       C  0.85466711  0.98683489  0.53371669    -0.03090
C3918       C  0.84508654  0.97519415  0.00066345     0.03730
N3919       N  0.82237051  0.94307998  0.99245834     0.66230
H3920       H  0.85139046  0.98695616  0.94974942     0.15130
H3921       H  0.88171227  0.52773878  0.56598208     0.14840
N3922       N  0.90829098  0.57173713  0.52315774     0.73940
O3923       O  0.82195111  0.93092888  0.96421994    -0.39510
O3924       O  0.79982737  0.92833675  0.01110714    -0.39460
O3925       O  0.90594927  0.59187036  0.50805344    -0.40160
O3926       O  0.92646943  0.58034320  0.54808297    -0.40230
C3927       C  0.88627345  0.50759949  0.78511475    -0.12510
C3928       C  0.88634332  0.53549228  0.78351661     0.04500
C3929       C  0.87550814  0.54139055  0.75404692    -0.07800
C3930       C  0.86858897  0.52092147  0.72608808    -0.08540
C3931       C  0.87055432  0.99407624  0.72707606    -0.03090
C3932       C  0.87682605  0.98599612  0.75774139     0.03730
N3933       N  0.86971908  0.95495400  0.76268671     0.66230
H3934       H  0.89198620  0.50192776  0.80846128     0.15130
H3935       H  0.86128177  0.52582091  0.70322112     0.14840
N3936       N  0.86999011  0.56683386  0.75208873     0.73940
O3937       O  0.88124493  0.94973642  0.78744793    -0.39510
O3938       O  0.84623167  0.93245029  0.74793625    -0.39460
O3939       O  0.88659225  0.59218876  0.76847852    -0.40160
O3940       O  0.84924546  0.56454092  0.73246588    -0.40230
C3941       C  0.55336397  0.62352224  0.88997028    -0.12510
C3942       C  0.52653242  0.59879169  0.90252107     0.04500
C3943       C  0.52927160  0.57766432  0.92205433    -0.07800
C3944       C  0.55778967  0.57906336  0.92362520    -0.08540
C3945       C  0.58416816  0.60224424  0.90855903    -0.03090
C3946       C  0.58275569  0.62730090  0.89598546     0.03730
N3947       N  0.60981569  0.65797893  0.89538099     0.66230
H3948       H  0.55165794  0.64171716  0.87859659     0.15130
H3949       H  0.55924903  0.56181748  0.93717929     0.14840
N3950       N  0.50420667  0.55528590  0.94109635     0.73940
O3951       O  0.60699975  0.68003301  0.88580235    -0.39510
O3952       O  0.63347829  0.66492810  0.91295280    -0.39460
O3953       O  0.97709806  0.53883366  0.92876762    -0.40160
O3954       O  0.50995447  0.54941759  0.96922884    -0.40230
C3955       C  0.80143902  0.62047523  0.86965061    -0.12510
C3956       C  0.77673540  0.59528018  0.85187454     0.04500
C3957       C  0.78103261  0.57200011  0.83603795    -0.07800
C3958       C  0.81001465  0.57434872  0.83866243    -0.08540
C3959       C  0.83434082  0.59885684  0.85746533    -0.03090
C3960       C  0.83025875  0.62238436  0.87307030     0.03730
N3961       N  0.85448529  0.64767824  0.89304709     0.66230
H3962       H  0.79766467  0.63778732  0.88249677     0.15130
H3963       H  0.81325831  0.55624061  0.82695809     0.14840
N3964       N  0.75575039  0.54468112  0.81965152     0.73940
O3965       O  0.85697442  0.67409922  0.89402408    -0.39510
O3966       O  0.87011775  0.64263059  0.91352466    -0.39460
O3967       O  0.74069505  0.54715854  0.79631594    -0.40160
O3968       O  0.75164539  0.51824180  0.82490666    -0.40230
C3969       C  0.53221041  0.85926588  0.00187820    -0.12510
C3970       C  0.51586158  0.85471046  0.53138303     0.04500
C3971       C  0.98439169  0.84682212  0.52951407    -0.07800
C3972       C  0.97115865  0.84639836  0.49861782    -0.08540
C3973       C  0.98809559  0.85250068  0.96938307    -0.03090
C3974       C  0.51862290  0.85769365  0.97105623     0.03730
N3975       N  0.53698491  0.86362688  0.94217937     0.66230
H3976       H  0.55654220  0.86593187  0.00304690     0.15130
H3977       H  0.94718045  0.84080957  0.49722979     0.14840
N3978       N  0.96583546  0.83989509  0.55850567     0.73940
O3979       O  0.56263740  0.88877459  0.94113836    -0.39510
O3980       O  0.53109038  0.84155996  0.92134719    -0.39460
O3981       O  0.44106732  0.84086970  0.55822038    -0.40160
O3982       O  0.97160112  0.82854434  0.58265061    -0.40230
C3983       C  0.49105037  0.83187959  0.76163637    -0.12510
C3984       C  0.97609689  0.84913319  0.76747899     0.04500
C3985       C  0.97276403  0.86449854  0.74113524    -0.07800
C3986       C  0.48425652  0.86252841  0.71021992    -0.08540
C3987       C  0.50206312  0.84830153  0.70523456    -0.03090
C3988       C  0.50503496  0.83202241  0.73113285     0.03730
N3989       N  0.52348633  0.81738860  0.72783502     0.66230
H3990       H  0.49346188  0.81974958  0.78170360     0.15130
H3991       H  0.48277381  0.87593179  0.69091100     0.14840
N3992       N  0.96058965  0.88471955  0.74577553     0.73940
O3993       O  0.53352488  0.81128977  0.75318807    -0.39510
O3994       O  0.52811786  0.80854631  0.69978123    -0.39460
O3995       O  0.97557244  0.90893052  0.76449426    -0.40160
O3996       O  0.94200073  0.88390630  0.72419044    -0.40230
C3997       C  0.94060150  0.96413606  0.87858156    -0.12510
C3998       C  0.91210071  0.93575001  0.87931602     0.04500
C3999       C  0.88439380  0.93639531  0.87272180    -0.07800
C4000       C  0.88565287  0.96505701  0.87222859    -0.08540
C4001       C  0.91402554  0.99328904  0.87270423    -0.03090
C4002       C  0.94178026  0.99213628  0.87184664     0.03730
N4003       N  0.97045122  0.51787108  0.86113543     0.66230
H4004       H  0.96214054  0.96389629  0.87975527     0.15130
H4005       H  0.86407126  0.96513843  0.87016711     0.14840
N4006       N  0.85502898  0.90875543  0.86479263     0.73940
O4007       O  0.99606164  0.51977789  0.86772830    -0.39510
O4008       O  0.96978612  0.53473580  0.83946955    -0.39460
O4009       O  0.83067210  0.90603797  0.87742619    -0.40160
O4010       O  0.85225471  0.89251936  0.83871411    -0.40230
C4011       C  0.93016051  0.70691888  0.91650411    -0.12510
C4012       C  0.94301971  0.70252299  0.88732173     0.04500
C4013       C  0.95246910  0.72446246  0.86309031    -0.07800
C4014       C  0.94660879  0.74884694  0.86754575    -0.08540
C4015       C  0.93240464  0.75288910  0.89597490    -0.03090
C4016       C  0.92558173  0.73241343  0.92166698     0.03730
N4017       N  0.91395625  0.73665302  0.95271421     0.66230
H4018       H  0.92337354  0.69026918  0.93528111     0.15130
H4019       H  0.95368176  0.76520081  0.84835371     0.14840
N4020       N  0.96775429  0.72231638  0.83367461     0.73940
O4021       O  0.89355072  0.71325636  0.96688201    -0.39510
O4022       O  0.92852205  0.76240413  0.96912330    -0.39460
O4023       O  0.98663497  0.71263883  0.83472531    -0.40160
O4024       O  0.46580146  0.73413550  0.80772123    -0.40230
C4025       C  0.53685050  0.95295871  0.88867135    -0.12510
C4026       C  0.53760370  0.92678576  0.87535980     0.04500
C4027       C  0.56608818  0.93123650  0.86315790    -0.07800
C4028       C  0.59273917  0.96133784  0.86543959    -0.08420
C4029       C  0.59137510  0.98739528  0.87798825    -0.03090
C4030       C  0.56310246  0.98266473  0.89050507     0.03730
N4031       N  0.56127798  0.50688964  0.90872876     0.66230
H4032       H  0.51569531  0.95043528  0.89896949     0.15130
H4033       H  0.61462282  0.96442718  0.85729090     0.14840
N4034       N  0.56863894  0.90594350  0.84854661     0.73940
O4035       O  0.53829309  0.51026655  0.90370291    -0.39510
O4036       O  0.57698404  0.51821071  0.93536078    -0.39460
O4037       O  0.55248131  0.89097720  0.82301437    -0.40160
O4038       O  0.59127562  0.90290317  0.85668058    -0.40230
C4039       C  0.79030186  0.69762374  0.89728724    -0.12510
C4040       C  0.77419224  0.68593472  0.86682323     0.04500
C4041       C  0.78777395  0.70278908  0.83846118    -0.07800
C4042       C  0.81671119  0.73050843  0.84132329    -0.08540
C4043       C  0.83212033  0.74294231  0.87208101    -0.03090
C4044       C  0.81868279  0.72578043  0.90037009     0.03730
N4045       N  0.83249620  0.73709548  0.93277359     0.66230
H4046       H  0.78046774  0.68509831  0.91929493     0.15130
H4047       H  0.82612371  0.74350493  0.81951672     0.14840
N4048       N  0.77140813  0.69395640  0.80718926     0.73940
O4049       O  0.81640205  0.73860403  0.95608294    -0.39510
O4050       O  0.85848238  0.73991460  0.93940554    -0.39460
O4051       O  0.74658229  0.69458886  0.80435030    -0.40160
O4052       O  0.78498775  0.69250995  0.78143506    -0.40230
C4053       C  0.84803956  0.82240943  0.99971843    -0.12510
C4054       C  0.85321779  0.83570042  0.96898291     0.04500
C4055       C  0.84350568  0.85732968  0.96412283    -0.07800
C4056       C  0.83160467  0.86707396  0.99036905    -0.08540
C4057       C  0.82910095  0.85586355  0.52162684    -0.03090
C4058       C  0.83604104  0.83220274  0.52591550     0.03730
N4059       N  0.83093450  0.81777980  0.55661229     0.66230
H4060       H  0.85448530  0.80518822  0.00390667     0.15130
H4061       H  0.82592738  0.88489283  0.98671671     0.14840
N4062       N  0.84797062  0.87183998  0.93369980     0.73940
O4063       O  0.80946798  0.78988119  0.55830913    -0.39510
O4064       O  0.85162129  0.83018720  0.57924856    -0.39460
O4065       O  0.83161744  0.85599173  0.90861136    -0.40160
O4066       O  0.86209341  0.90110490  0.93410715    -0.40230
C4067       C  0.89685241  0.91460237  0.73665194    -0.12510
C4068       C  0.86919752  0.89269038  0.72000363     0.04500
C4069       C  0.85181493  0.86269690  0.73198462    -0.07800
C4070       C  0.86327757  0.85532132  0.75962433    -0.08540
C4071       C  0.89155421  0.87738448  0.77578871    -0.03090
C4072       C  0.90778744  0.90798773  0.76454471     0.03730
N4073       N  0.93501384  0.93327271  0.78103433     0.66230
H4074       H  0.91002270  0.93805012  0.72846209     0.15130
H4075       H  0.85020268  0.83201207  0.76811335     0.14840
N4076       N  0.82370195  0.83902366  0.71562758     0.73940
O4077       O  0.95766071  0.95149141  0.76409128    -0.39510
O4078       O  0.93251934  0.94293486  0.80951954    -0.39460
O4079       O  0.82464302  0.82951934  0.68647048    -0.40160
O4080       O  0.79990033  0.82313220  0.73230548    -0.40230
loop_ 
_geom_bond_atom_site_label_1 
_geom_bond_atom_site_label_2 
_geom_bond_distance 
_geom_bond_site_symmetry_2 
_ccdc_geom_bond_type 
O1            C9   1.263       .  A
O1          Co21   1.976       .  S
O2           C10   1.269       .  A
O2          Co22   1.960       .  S
O3           C11   1.311       .  A
O3          Co23   2.133       .  S
O4           C12   1.264       .  A
O4          Co24   2.054       .  S
O5           C11   1.281       .  A
O5          Co22   1.875       .  S
O6           C12   1.243       .  A
O6          Co21   1.933       .  S
O7           C10   1.278       .  A
O7          Co24   2.042       .  S
O8            C9   1.264       .  A
O8          Co23   2.021       .  S
C9          C428   1.509       .  S
C10         C403   1.490       .  S
C11         C484   1.489       .  S
C12        C2496   1.494       .  S
O13          C26   1.285       .  A
O13         Co21   2.065       .  S
O14          C27   1.246       .  A
O14         Co22   2.023       .  S
O15          C28   1.262       .  A
O15         Co23   1.979       .  S
O16          C29   1.257       .  A
O16         Co24   1.950       .  S
O17          C29   1.274       .  A
O17         Co22   2.052       .  S
O18          C28   1.258       .  A
O18         Co21   1.980       .  S
O19          C26   1.261       .  A
O19         Co24   1.949       .  S
O20          C27   1.242       .  A
O20         Co23   1.969       .  S
Co21         O25   2.057       .  S
Co22         O25   2.032       .  S
Co23         O25   2.115       .  S
Co24         O25   2.091       .  S
C26         C414   1.492       .  S
C27         C473   1.492       .  S
C28         C501   1.486       .  S
C29         C445   1.493       .  S
O30          C38   1.269       .  A
O30         Co50   1.887       .  S
O31          C39   1.245       .  A
O31         Co51   1.983       .  S
O32          C40   1.268       .  A
O32       Co2092   1.988       .  S
O33          C41   1.272       .  A
O33         Co53   2.029       .  S
O34        C2080   1.256       .  A
O34         Co51   1.963       .  S
O35          C41   1.262       .  A
O35         Co50   1.975       .  S
O36          C39   1.253       .  A
O36         Co53   2.009       .  S
O37          C38   1.303       .  A
O37         Co52   2.092       .  S
C38         C333   1.485       .  S
C39        C1451   1.500   1_545  S
C40        O2074   1.256       .  A
C40         C372   1.461   1_655  S
C41         C358   1.478       .  S
O42          C55   1.270       .  A
O42         Co50   2.000       .  S
O43          C56   1.264       .  A
O43         Co51   1.980       .  S
O44          C57   1.249       .  A
O44         Co52   1.981       .  S
O45          C58   1.302       .  A
O45         Co53   2.073       .  S
O46          C58   1.273       .  A
O46         Co51   1.888       .  S
O47          C57   1.249       .  A
O47         Co50   1.979       .  S
O48          C55   1.265       .  A
O48         Co53   1.972       .  S
O49          C56   1.267       .  A
O49         Co52   2.004       .  S
Co50         O54   1.932       .  S
Co51         O54   1.910       .  S
Co52       O2072   1.988       .  S
Co52         O54   2.135       .  S
Co53         O54   2.159       .  S
C55         C389   1.458       .  S
C56         C316   1.471       .  S
C57         C442   1.472       .  S
C58         C344   1.462       .  S
O59          C67   1.257       .  A
O59         Co79   2.021       .  S
O60          C68   1.255       .  A
O60         Co80   2.007       .  S
O61          C69   1.253       .  A
O61         Co81   1.969       .  S
O62          C70   1.245       .  A
O62         Co82   1.943       .  S
O63          C69   1.261       .  A
O63         Co80   1.991       .  S
O64          C70   1.273       .  A
O64         Co79   2.064       .  S
O65          C68   1.248       .  A
O65         Co82   1.970       .  S
O66          C67   1.254       .  A
O66         Co81   1.968       .  S
C67        C2342   1.486   1_455  S
C68         C235   1.472       .  S
C69        C1283   1.482       .  S
C70         C400   1.482       .  S
O71          C84   1.258       .  A
O71         Co79   1.955       .  S
O72          C85   1.251       .  A
O72         Co80   1.947       .  S
O73          C86   1.280       .  A
O73         Co81   2.035       .  S
O74          C87   1.276       .  A
O74         Co82   2.059       .  S
O75          C87   1.254       .  A
O75         Co80   1.944       .  S
O76          C86   1.267       .  A
O76         Co79   1.941       .  S
O77          C84   1.271       .  A
O77         Co82   2.023       .  S
O78          C85   1.254       .  A
O78         Co81   1.982       .  S
Co79         O83   2.053       .  S
Co80         O83   2.114       .  S
Co81         O83   2.163       .  S
Co82         O83   2.089       .  S
C84         C274   1.469       .  S
C85         C249   1.486       .  S
C86         C417   1.479       .  S
C87         C288   1.503       .  S
O88          C96   1.270       .  A
O88        Co108   2.040       .  S
O89          C97   1.275       .  A
O89        Co109   2.016       .  S
O90          C98   1.257       .  A
O90        Co110   1.949       .  S
O91          C99   1.258       .  A
O91        Co111   1.858       .  S
O92          C98   1.272       .  A
O92        Co109   2.032       .  S
O93          C99   1.300       .  A
O93        Co108   2.124       .  S
O94          C97   1.277       .  A
O94        Co111   1.989       .  S
O95          C96   1.256       .  A
O95        Co110   1.967       .  S
C96         C207   1.495       .  S
C97        C1479   1.488   1_545  S
C98         C246   1.472       .  S
C99         C375   1.478       .  S
O100        C113   1.270       .  A
O100       Co108   1.909       .  S
O101        C114   1.259       .  A
O101       Co109   1.952       .  S
O102        C115   1.276       .  A
O102       Co110   2.025       .  S
O103        C116   1.256       .  A
O103       Co111   1.980       .  S
O104        C116   1.259       .  A
O104       Co109   1.984       .  S
O105        C115   1.269       .  A
O105       Co108   1.968       .  S
O106        C113   1.298       .  A
O106       Co111   2.103       .  S
O107        C114   1.269       .  A
O107       Co110   2.016       .  S
Co108       O112   2.031       .  S
Co109       O112   2.056       .  S
Co110       O112   2.020       .  S
Co111       O112   1.978       .  S
C113        C221   1.490       .  S
C114        C386   1.458       .  S
C115        C470   1.491       .  S
C116        C232   1.478       .  S
O117        C125   1.279       .  A
O117       Co137   2.045       .  S
O118        C126   1.265       .  A
O118       Co138   2.046       .  S
O119        C127   1.261       .  A
O119       Co139   1.903       .  S
O120        C128   1.248       .  A
O120       Co140   1.932       .  S
O121        C127   1.296       .  A
O121       Co138   2.108       .  S
O122        C128   1.268       .  A
O122       Co137   2.031       .  S
O123        C126   1.246       .  A
O123       Co140   1.953       .  S
O124        C125   1.261       .  A
O124       Co139   1.962       .  S
C125       C2219   1.473   1_455  S
C126        C218   1.496       .  S
C127        C319   1.473       .  S
C128        C260   1.472       .  S
O129        C142   1.261       .  A
O129       Co137   1.963       .  S
O130        C143   1.266       .  A
O130       Co138   1.897       .  S
O131        C144   1.257       .  A
O131       Co139   2.015       .  S
O132        C145   1.275       .  A
O132       Co140   2.022       .  S
O133        C145   1.262       .  A
O133       Co138   1.969       .  S
O134        C144   1.249       .  A
O134       Co137   1.959       .  S
O135        C142   1.277       .  A
O135       Co140   2.047       .  S
O136        C143   1.293       .  A
O136       Co139   2.081       .  S
Co137       O141   2.045       .  S
Co138       O141   2.033       .  S
Co139       O141   2.028       .  S
Co140       O141   2.022       .  S
C142        C204   1.503       .  S
C143        C277   1.463       .  S
C144        C330   1.478       .  S
C145        C190   1.469       .  S
O146        C154   1.257       .  A
O146       Co166   1.962       .  S
O147        C155   1.269       .  A
O147       Co167   1.967       .  S
O148        C156   1.287       .  A
O148       Co168   2.085       .  S
O149        C157   1.272       .  A
O149       Co169   2.059       .  S
O150        C156   1.266       .  A
O150       Co167   1.904       .  S
O151        C157   1.247       .  A
O151       Co166   1.942       .  S
O152        C155   1.275       .  A
O152       Co169   2.013       .  S
O153        C154   1.269       .  A
O153       Co168   2.034       .  S
C154        C305   1.494       .  S
C155        C347   1.470       .  S
C156        C487   1.476       .  S
C157       C1196   1.495       .  S
O158        C171   1.283       .  A
O158       Co166   2.054       .  S
O159        C172   1.297       .  A
O159       Co167   2.102       .  S
O160        C173   1.271       .  A
O160       Co168   1.980       .  S
O161        C174   1.263       .  A
O161       Co169   1.985       .  S
O162        C174   1.266       .  A
O162       Co167   2.012       .  S
O163        C173   1.272       .  A
O163       Co166   1.986       .  S
O164        C171   1.264       .  A
O164       Co169   1.964       .  S
O165        C172   1.271       .  A
O165       Co168   1.887       .  S
Co166       O170   1.993       .  S
Co167       O170   1.996       .  S
Co168       O170   2.027       .  S
Co169       O170   2.057       .  S
C171        C361   1.484       .  S
C172        C193   1.470       .  S
C173        C498   1.479       .  S
C174        C291   1.500       .  S
C175        C176   1.414       .  A
C175        C180   1.404       .  A
C175        H182   1.083       .  S
C176       C1177   1.495       .  S
C176        C177   1.411       .  A
C177        C178   1.407       .  A
C177        N184   1.430       .  S
C178        C179   1.406       .  A
C178        H183   1.084       .  S
C179       C2165   1.473       .  S
C179        C180   1.407       .  A
C180       N2221   1.440       .  S
N181       C2220   1.440   1_455  S
N181        O185   1.261       .  A
N181        O186   1.261       .  A
N184        O187   1.260       .  A
N184        O188   1.262       .  A
C189        C190   1.401       .  A
C189        C194   1.394       .  A
C189        H196   1.084       .  S
C190        C191   1.420       .  A
C191        C192   1.413       .  A
C191        N198   1.446       .  S
C192        C193   1.403       .  A
C192        H197   1.083       .  S
C193        C194   1.405       .  A
C194        N195   1.431       .  S
N195        O199   1.262       .  A
N195        O200   1.262       .  A
N198        O201   1.261       .  A
N198        O202   1.263       .  A
C203        C204   1.410       .  A
C203        C208   1.408       .  A
C203        H210   1.083       .  S
C204        C205   1.416       .  A
C205        C206   1.411       .  A
C205        N212   1.437       .  S
C206        C207   1.409       .  A
C206        H211   1.084       .  S
C207        C208   1.410       .  A
C208        N209   1.431       .  S
N209        O213   1.262       .  A
N209        O214   1.263       .  A
N212        O215   1.263       .  A
N212        O216   1.262       .  A
C217        C218   1.410       .  A
C217        C732   1.422   1_554  A
C217        H224   1.083       .  S
C218        C219   1.418       .  A
C219        C730   1.390   1_554  A
C219        N226   1.432       .  S
C220        C221   1.398       .  A
C220        C729   1.390       .  A
C220        H225   1.082       .  S
C221        C222   1.421       .  A
C222        C727   1.422       .  A
C222        N223   1.440       .  S
N223        O227   1.263       .  A
N223        O228   1.263       .  A
N226        O229   1.262       .  A
N226        O230   1.262       .  A
C231        C236   1.405       .  A
C231        C742   1.404   1_554  A
C231        H238   1.084       .  S
C232        C741   1.404       .  A
C232       C1253   1.414       .  A
C233        C234   1.403       .  A
C233       C1252   1.414       .  A
C233        N240   1.435       .  S
C234        C745   1.402       .  A
C234        H239   1.084       .  S
C235        C744   1.402       .  A
C235       C1256   1.418       .  A
C236       C1255   1.418   1_545  A
C236        N237   1.444       .  S
N237        O241   1.263       .  A
N237        O242   1.261   1_545  A
N240        O244   1.263       .  A
N240       O1263   1.262       .  A
O243       N1260   1.262       .  A
C245        C246   1.407   1_565  A
C245       C1270   1.413       .  A
C245       H1272   1.076       .  S
C246        C247   1.409       .  A
C247        C248   1.385       .  A
C247        N254   1.440       .  S
C248       C1269   1.409   1_545  A
C248        H253   1.083       .  S
C249        C250   1.414       .  A
C249       C1268   1.409       .  A
C250       C1265   1.413       .  A
C250        N251   1.434       .  S
N251        O255   1.262       .  A
N251        O256   1.262       .  A
H252       C1265   1.076       .  S
N254        O257   1.261       .  A
N254        O258   1.263       .  A
C259        C260   1.410       .  A
C259        C264   1.403       .  A
C259        H266   1.084       .  S
C260        C261   1.402       .  A
C261        C262   1.398       .  A
C261        N268   1.434       .  S
C262        C263   1.413       .  A
C262        H267   1.083       .  S
C263       C1089   1.482   1_545  S
C263        C264   1.411       .  A
C264        N265   1.440       .  S
N265        O269   1.263       .  A
N265        O270   1.263       .  A
N268        O271   1.262       .  A
N268        O272   1.262       .  A
C273        C274   1.403       .  A
C273        C278   1.407       .  A
C273        H280   1.084       .  S
C274        C275   1.412       .  A
C275        C276   1.394       .  A
C275        N282   1.433       .  S
C276        C277   1.397       .  A
C276        H281   1.084       .  S
C277        C278   1.414       .  A
C278        N279   1.438       .  S
N279        O283   1.263       .  A
N279        O284   1.262       .  A
N282        O285   1.262       .  A
N282        O286   1.262       .  A
C287        C288   1.410       .  A
C287        C292   1.401       .  A
C287        H294   1.083       .  S
C288        C289   1.418       .  A
C289        C290   1.414       .  A
C289        N296   1.433       .  S
C290        C291   1.411       .  A
C290        H295   1.083       .  S
C291        C292   1.415       .  A
C292        N293   1.435       .  S
N293        O297   1.263       .  A
N293        O298   1.263       .  A
N296        O299   1.262       .  A
N296        O300   1.262       .  A
C301        C302   1.408       .  A
C301        C306   1.407       .  A
C301        H308   1.083       .  S
C302       C2107   1.486       .  S
C302        C303   1.403       .  A
C303        C304   1.399       .  A
C303       N2350   1.425       .  S
C304        C305   1.412       .  A
C304        H309   1.084       .  S
C305        C306   1.416       .  A
C306        N307   1.433       .  S
N307        O311   1.262       .  A
N307        O312   1.262       .  A
N310       C2343   1.425   1_455  S
N310        O313   1.261       .  A
N310        O314   1.261       .  A
C315       C2356   1.401       .  A
C315        C830   1.401   1_655  A
C315        H322   1.084       .  S
C316       C2355   1.401       .  A
C316       C2357   1.414       .  A
C317       C2356   1.414       .  A
C317        C828   1.408   1_655  A
C317       N2364   1.440       .  S
C318        C319   1.403       .  A
C318        C827   1.408   1_454  A
C318        H323   1.083       .  S
C319        C320   1.413       .  A
C320        C825   1.401   1_455  A
C320        N321   1.436       .  S
N321        O325   1.263   1_455  A
N321        O326   1.261       .  A
N324       C2357   1.440       .  S
N324        O327   1.261       .  A
N324       O2368   1.263       .  A
O328       N2364   1.263   1_455  A
C329        C330   1.402       .  A
C329       C2374   1.413   1_455  A
C329        H336   1.084       .  S
C330        C331   1.412       .  A
C331        C332   1.392       .  A
C331        N338   1.431       .  S
C332       C2373   1.401   1_455  A
C332        H337   1.085       .  S
C333        C334   1.422       .  A
C333       C2372   1.401       .  A
C334       C2369   1.413       .  A
C334        N335   1.436       .  S
N335        O339   1.263       .  A
N335        O340   1.261       .  A
N338        O341   1.261       .  A
N338        O342   1.262       .  A
C343        C348   1.402       .  A
C343       C1364   1.399       .  A
C343        H350   1.084       .  S
C344       C1363   1.399   1_545  A
C344        C855   1.409       .  A
C345        C346   1.401       .  A
C345        C854   1.409   1_554  A
C345        N352   1.436       .  S
C346       C1367   1.403   1_545  A
C346        H351   1.083       .  S
C347       C1366   1.403       .  A
C347        C858   1.415       .  A
C348        C857   1.415       .  A
C348        N349   1.440       .  S
N349        O353   1.263       .  A
N349        O354   1.262       .  A
N352        O355   1.262       .  A
N352        O356   1.263       .  A
C357        C358   1.400       .  A
C357       C1382   1.408   1_545  A
C357        H364   1.083       .  S
C358        C359   1.419       .  A
C359        C360   1.405       .  A
C359        N366   1.440       .  S
C360       C1381   1.399   1_545  A
C360        H365   1.082       .  S
C361        C362   1.412       .  A
C361       C1380   1.399       .  A
C362       C1377   1.408       .  A
C362        N363   1.433       .  S
N363        O367   1.262       .  A
N363        O368   1.262       .  A
N366        O369   1.259       .  A
N366        O370   1.263       .  A
C371        C372   1.401       .  A
C371        C376   1.402       .  A
C371        H378   1.084       .  S
C372        C373   1.415       .  A
C373        C374   1.391       .  A
C373        N380   1.441       .  S
C374        C375   1.404       .  A
C374        H379   1.081       .  S
C375        C376   1.414       .  A
C376        N377   1.442       .  S
N377        O381   1.263       .  A
N377        O382   1.260       .  A
N380        O384   1.263       .  A
N380       O2423   1.260   1_455  A
O383       N2420   1.260       .  A
C385        C386   1.400       .  A
C385        C390   1.400       .  A
C385        H392   1.084       .  S
C386        C387   1.411       .  A
C387        C388   1.395       .  A
C387        N394   1.435       .  S
C388        C389   1.398       .  A
C388        H393   1.085       .  S
C389        C390   1.412       .  A
C390        N391   1.436       .  S
N391        O395   1.263       .  A
N391        O396   1.261       .  A
N394        O397   1.261       .  A
N394        O398   1.263       .  A
C399        C404   1.404       .  A
C399        C910   1.408       .  A
C399        H406   1.085       .  S
C400        C909   1.408       .  A
C400       C2441   1.414   1_455  A
C401        C402   1.413   1_554  A
C401       C2440   1.414       .  A
C401        N408   1.439       .  S
C402        C913   1.408       .  A
C402        H407   1.083       .  S
C403        C912   1.408       .  A
C403       C2444   1.411       .  A
C404       C2443   1.411   1_455  A
C404        N405   1.433       .  S
N405        O409   1.262       .  A
N405        O410   1.262       .  A
N408        O412   1.262       .  A
N408       O2451   1.263       .  A
O411       N2448   1.263       .  A
C413        C418   1.417   1_655  A
C413       C2454   1.412       .  A
C413        H420   1.083       .  S
C414        C415   1.407       .  A
C414       C2453   1.412       .  A
C415       C2456   1.397       .  A
C415        N422   1.427       .  S
C416        C417   1.403   1_655  A
C416       C2455   1.397       .  A
C416        H421   1.085       .  S
C417        C418   1.416       .  A
C418        N419   1.442       .  S
N419        O423   1.263       .  A
N419        O424   1.262       .  A
N422        O425   1.261       .  A
N422        O426   1.262       .  A
C427        C428   1.412       .  A
C427        C432   1.415       .  A
C427        H434   1.083       .  S
C428        C429   1.427       .  A
C429        C430   1.406       .  A
C429        N436   1.436       .  S
C430        C431   1.402       .  A
C430        H435   1.083       .  S
C431       C1059   1.500       .  S
C431        C432   1.417       .  A
C432       N1453   1.442       .  S
N433       C1452   1.442   1_545  S
N433        O437   1.262       .  A
N433        O438   1.263       .  A
N436        O439   1.263       .  A
N436        O440   1.262       .  A
C441        C442   1.404       .  A
C441        C446   1.412       .  A
C441        H448   1.081       .  S
C442        C443   1.407       .  A
C443        C444   1.396       .  A
C443        N450   1.442       .  S
C444        C445   1.410       .  A
C444        H449   1.083       .  S
C445        C446   1.418       .  A
C446        N447   1.435       .  S
N447        O451   1.263       .  A
N447        O452   1.262       .  A
N450        O453   1.262       .  A
N450       O2494   1.262       .  A
O454       N2490   1.262       .  A
C455        C456   1.409       .  A
C455        C460   1.394       .  A
C455        H462   1.083       .  S
C456       C2052   1.494       .  S
C456        C457   1.415       .  A
C457        C458   1.413       .  A
C457        N464   1.434       .  S
C458        C459   1.409       .  A
C458        H463   1.076       .  S
C459       C1117   1.488       .  S
C459        C460   1.405       .  A
C460       N1481   1.429       .  S
N461       C1480   1.429   1_545  S
N461        O465   1.261       .  A
N461        O466   1.262       .  A
N464        O467   1.262       .  A
N464        O468   1.262       .  A
C469        C470   1.403       .  A
C469        C474   1.401       .  A
C469        H476   1.084       .  S
C470        C471   1.418       .  A
C471        C472   1.404       .  A
C471        N478   1.433       .  S
C472        C473   1.404       .  A
C472        H477   1.084       .  S
C473        C474   1.421       .  A
C474        N475   1.433       .  S
N475        O479   1.263       .  A
N475        O480   1.260       .  A
N478        O481   1.262       .  A
N478        O482   1.262       .  A
C483        C484   1.405       .  A
C483        C998   1.402       .  A
C483        H490   1.084       .  S
C484        C485   1.416       .  A
C485        C486   1.400       .  A
C485        N492   1.425       .  S
C486        C997   1.393       .  A
C486        H491   1.082       .  S
C487        C488   1.412       .  A
C487        C996   1.393   1_554  A
C488        C993   1.402   1_554  A
C488        N489   1.429       .  S
N489        O493   1.262       .  A
N489        O494   1.261       .  A
N492        O495   1.262       .  A
N492        O496   1.262       .  A
C497        C498   1.398       .  A
C497        C502   1.384       .  A
C497        H504   1.085       .  S
C498        C499   1.412       .  A
C499        C500   1.409       .  A
C499        N506   1.431       .  S
C500        C501   1.410       .  A
C500        H505   1.083       .  S
C501        C502   1.422       .  A
C502        N503   1.437       .  S
N503        O507   1.263       .  A
N503        O508   1.259       .  A
N506        O509   1.261       .  A
N506        O510   1.262       .  A
O511        C519   1.263       .  A
O511       Co531   1.976       .  S
O512        C520   1.269       .  A
O512       Co532   1.960       .  S
O513        C521   1.311       .  A
O513       Co533   2.133       .  S
O514        C522   1.264       .  A
O514       Co534   2.054       .  S
O515        C521   1.281       .  A
O515       Co532   1.875       .  S
O516        C522   1.243       .  A
O516       Co531   1.933       .  S
O517        C520   1.278       .  A
O517       Co534   2.042       .  S
O518        C519   1.264       .  A
O518       Co533   2.021       .  S
C519        C938   1.509       .  S
C520        C913   1.490       .  S
C521        C994   1.489       .  S
C522       C3006   1.494       .  S
O523        C536   1.285       .  A
O523       Co531   2.065       .  S
O524        C537   1.246       .  A
O524       Co532   2.023       .  S
O525        C538   1.262       .  A
O525       Co533   1.979       .  S
O526        C539   1.257       .  A
O526       Co534   1.950       .  S
O527        C539   1.274       .  A
O527       Co532   2.052       .  S
O528        C538   1.258       .  A
O528       Co531   1.980       .  S
O529        C536   1.261       .  A
O529       Co534   1.949       .  S
O530        C537   1.242       .  A
O530       Co533   1.969       .  S
Co531       O535   2.057       .  S
Co532       O535   2.032       .  S
Co533       O535   2.115       .  S
Co534       O535   2.091       .  S
C536        C924   1.492       .  S
C537        C983   1.492       .  S
C538       C1011   1.486       .  S
C539        C955   1.493       .  S
O540        C548   1.269       .  A
O540       Co560   1.887       .  S
O541        C549   1.245       .  A
O541       Co561   1.983       .  S
O542        C550   1.268       .  A
O542      Co2602   1.988       .  S
O543        C551   1.272       .  A
O543       Co563   2.029       .  S
O544       C2590   1.256       .  A
O544       Co561   1.963       .  S
O545        C551   1.262       .  A
O545       Co560   1.975       .  S
O546        C549   1.253       .  A
O546       Co563   2.009       .  S
O547        C548   1.303       .  A
O547       Co562   2.092       .  S
C548        C843   1.485       .  S
C549       C1961   1.500   1_545  S
C550       O2584   1.256       .  A
C550        C882   1.461   1_655  S
C551        C868   1.478       .  S
O552        C565   1.270       .  A
O552       Co560   2.000       .  S
O553        C566   1.264       .  A
O553       Co561   1.980       .  S
O554        C567   1.249       .  A
O554       Co562   1.981       .  S
O555        C568   1.302       .  A
O555       Co563   2.073       .  S
O556        C568   1.273       .  A
O556       Co561   1.888       .  S
O557        C567   1.249       .  A
O557       Co560   1.979       .  S
O558        C565   1.265       .  A
O558       Co563   1.972       .  S
O559        C566   1.267       .  A
O559       Co562   2.004       .  S
Co560       O564   1.932       .  S
Co561       O564   1.910       .  S
Co562      O2582   1.988       .  S
Co562       O564   2.135       .  S
Co563       O564   2.159       .  S
C565        C899   1.458       .  S
C566        C826   1.471       .  S
C567        C952   1.472       .  S
C568        C854   1.462       .  S
O569        C577   1.257       .  A
O569       Co589   2.021       .  S
O570        C578   1.255       .  A
O570       Co590   2.007       .  S
O571        C579   1.253       .  A
O571       Co591   1.969       .  S
O572        C580   1.245       .  A
O572       Co592   1.943       .  S
O573        C579   1.261       .  A
O573       Co590   1.991       .  S
O574        C580   1.273       .  A
O574       Co589   2.064       .  S
O575        C578   1.248       .  A
O575       Co592   1.970       .  S
O576        C577   1.254       .  A
O576       Co591   1.968       .  S
C577       C2852   1.486   1_455  S
C578        C745   1.472       .  S
C579       C1793   1.482       .  S
C580        C910   1.482       .  S
O581        C594   1.258       .  A
O581       Co589   1.955       .  S
O582        C595   1.251       .  A
O582       Co590   1.947       .  S
O583        C596   1.280       .  A
O583       Co591   2.035       .  S
O584        C597   1.276       .  A
O584       Co592   2.059       .  S
O585        C597   1.254       .  A
O585       Co590   1.944       .  S
O586        C596   1.267       .  A
O586       Co589   1.941       .  S
O587        C594   1.271       .  A
O587       Co592   2.023       .  S
O588        C595   1.254       .  A
O588       Co591   1.982       .  S
Co589       O593   2.053       .  S
Co590       O593   2.114       .  S
Co591       O593   2.163       .  S
Co592       O593   2.089       .  S
C594        C784   1.469       .  S
C595        C759   1.486       .  S
C596        C927   1.479       .  S
C597        C798   1.503       .  S
O598        C606   1.270       .  A
O598       Co618   2.040       .  S
O599        C607   1.275       .  A
O599       Co619   2.016       .  S
O600        C608   1.257       .  A
O600       Co620   1.949       .  S
O601        C609   1.258       .  A
O601       Co621   1.858       .  S
O602        C608   1.272       .  A
O602       Co619   2.032       .  S
O603        C609   1.300       .  A
O603       Co618   2.124       .  S
O604        C607   1.277       .  A
O604       Co621   1.989       .  S
O605        C606   1.256       .  A
O605       Co620   1.967       .  S
C606        C717   1.495       .  S
C607       C1989   1.488   1_545  S
C608        C756   1.472       .  S
C609        C885   1.478       .  S
O610        C623   1.270       .  A
O610       Co618   1.909       .  S
O611        C624   1.259       .  A
O611       Co619   1.952       .  S
O612        C625   1.276       .  A
O612       Co620   2.025       .  S
O613        C626   1.256       .  A
O613       Co621   1.981       .  S
O614        C626   1.259       .  A
O614       Co619   1.983       .  S
O615        C625   1.269       .  A
O615       Co618   1.968       .  S
O616        C623   1.298       .  A
O616       Co621   2.103       .  S
O617        C624   1.269       .  A
O617       Co620   2.016       .  S
Co618       O622   2.031       .  S
Co619       O622   2.056       .  S
Co620       O622   2.020       .  S
Co621       O622   1.978       .  S
C623        C731   1.490       .  S
C624        C896   1.458       .  S
C625        C980   1.491       .  S
C626        C742   1.478       .  S
O627        C635   1.279       .  A
O627       Co647   2.045       .  S
O628        C636   1.265       .  A
O628       Co648   2.046       .  S
O629        C637   1.261       .  A
O629       Co649   1.903       .  S
O630        C638   1.248       .  A
O630       Co650   1.932       .  S
O631        C637   1.296       .  A
O631       Co648   2.108       .  S
O632        C638   1.268       .  A
O632       Co647   2.031       .  S
O633        C636   1.246       .  A
O633       Co650   1.953       .  S
O634        C635   1.261       .  A
O634       Co649   1.962       .  S
C635       C2729   1.473   1_455  S
C636        C728   1.496       .  S
C637        C829   1.473       .  S
C638        C770   1.472       .  S
O639        C652   1.261       .  A
O639       Co647   1.963       .  S
O640        C653   1.266       .  A
O640       Co648   1.897       .  S
O641        C654   1.257       .  A
O641       Co649   2.015       .  S
O642        C655   1.275       .  A
O642       Co650   2.022       .  S
O643        C655   1.262       .  A
O643       Co648   1.969       .  S
O644        C654   1.249       .  A
O644       Co647   1.959       .  S
O645        C652   1.277       .  A
O645       Co650   2.047       .  S
O646        C653   1.293       .  A
O646       Co649   2.081       .  S
Co647       O651   2.045       .  S
Co648       O651   2.033       .  S
Co649       O651   2.028       .  S
Co650       O651   2.022       .  S
C652        C714   1.503       .  S
C653        C787   1.463       .  S
C654        C840   1.478       .  S
C655        C700   1.469       .  S
O656        C664   1.257       .  A
O656       Co676   1.962       .  S
O657        C665   1.269       .  A
O657       Co677   1.967       .  S
O658        C666   1.287       .  A
O658       Co678   2.085       .  S
O659        C667   1.272       .  A
O659       Co679   2.059       .  S
O660        C666   1.266       .  A
O660       Co677   1.904       .  S
O661        C667   1.247       .  A
O661       Co676   1.942       .  S
O662        C665   1.275       .  A
O662       Co679   2.013       .  S
O663        C664   1.269       .  A
O663       Co678   2.034       .  S
C664        C815   1.494       .  S
C665        C857   1.470       .  S
C666        C997   1.476       .  S
C667       C1706   1.495       .  S
O668        C681   1.283       .  A
O668       Co676   2.054       .  S
O669        C682   1.297       .  A
O669       Co677   2.102       .  S
O670        C683   1.271       .  A
O670       Co678   1.980       .  S
O671        C684   1.263       .  A
O671       Co679   1.985       .  S
O672        C684   1.266       .  A
O672       Co677   2.012       .  S
O673        C683   1.272       .  A
O673       Co676   1.986       .  S
O674        C681   1.264       .  A
O674       Co679   1.964       .  S
O675        C682   1.271       .  A
O675       Co678   1.887       .  S
Co676       O680   1.993       .  S
Co677       O680   1.996       .  S
Co678       O680   2.027       .  S
Co679       O680   2.057       .  S
C681        C871   1.484       .  S
C682        C703   1.470       .  S
C683       C1008   1.479       .  S
C684        C801   1.500       .  S
C685        C686   1.414       .  A
C685        C690   1.404       .  A
C685        H692   1.083       .  S
C686       C1687   1.495       .  S
C686        C687   1.411       .  A
C687        C688   1.407       .  A
C687        N694   1.430       .  S
C688        C689   1.406       .  A
C688        H693   1.084       .  S
C689       C2675   1.473       .  S
C689        C690   1.407       .  A
C690       N2731   1.440       .  S
N691       C2730   1.440   1_455  S
N691        O695   1.261       .  A
N691        O696   1.261       .  A
N694        O697   1.260       .  A
N694        O698   1.262       .  A
C699        C700   1.401       .  A
C699        C704   1.394       .  A
C699        H706   1.084       .  S
C700        C701   1.420       .  A
C701        C702   1.413       .  A
C701        N708   1.446       .  S
C702        C703   1.403       .  A
C702        H707   1.083       .  S
C703        C704   1.405       .  A
C704        N705   1.431       .  S
N705        O709   1.262       .  A
N705        O710   1.262       .  A
N708        O711   1.261       .  A
N708        O712   1.263       .  A
C713        C714   1.410       .  A
C713        C718   1.408       .  A
C713        H720   1.083       .  S
C714        C715   1.416       .  A
C715        C716   1.411       .  A
C715        N722   1.437       .  S
C716        C717   1.409       .  A
C716        H721   1.084       .  S
C717        C718   1.410       .  A
C718        N719   1.431       .  S
N719        O723   1.262       .  A
N719        O724   1.263       .  A
N722        O725   1.263       .  A
N722        O726   1.262       .  A
C727        C728   1.410       .  A
C727        H734   1.083       .  S
C728        C729   1.418       .  A
C729        N736   1.432       .  S
C730        C731   1.398       .  A
C730        H735   1.082       .  S
C731        C732   1.421       .  A
C732        N733   1.440       .  S
N733        O737   1.263       .  A
N733        O738   1.263       .  A
N736        O739   1.262       .  A
N736        O740   1.262       .  A
C741        C746   1.405       .  A
C741        H748   1.084       .  S
C742       C1763   1.414       .  A
C743       C1762   1.414       .  A
C743        C744   1.403   1_556  A
C743        N750   1.435       .  S
C744        H749   1.084       .  S
C745       C1766   1.418       .  A
C746       C1765   1.418   1_545  A
C746        N747   1.444       .  S
N747        O751   1.263       .  A
N747        O752   1.261   1_545  A
N750       O1773   1.262       .  A
N750        O754   1.263       .  A
O753       N1770   1.262       .  A
C755        C756   1.407   1_565  A
C755       C1780   1.413       .  A
C755       H1782   1.076       .  S
C756        C757   1.409       .  A
C757        C758   1.385       .  A
C757        N764   1.440       .  S
C758       C1779   1.409   1_545  A
C758        H763   1.083       .  S
C759       C1778   1.409       .  A
C759        C760   1.414       .  A
C760       C1775   1.413       .  A
C760        N761   1.434       .  S
N761        O765   1.262       .  A
N761        O766   1.262       .  A
H762       C1775   1.076       .  S
N764        O767   1.261       .  A
N764        O768   1.263       .  A
C769        C770   1.410       .  A
C769        C774   1.403       .  A
C769        H776   1.084       .  S
C770        C771   1.402       .  A
C771        C772   1.398       .  A
C771        N778   1.434       .  S
C772        C773   1.413       .  A
C772        H777   1.083       .  S
C773       C1599   1.482   1_545  S
C773        C774   1.411       .  A
C774        N775   1.440       .  S
N775        O779   1.263       .  A
N775        O780   1.263       .  A
N778        O781   1.262       .  A
N778        O782   1.262       .  A
C783        C784   1.403       .  A
C783        C788   1.407       .  A
C783        H790   1.084       .  S
C784        C785   1.412       .  A
C785        C786   1.394       .  A
C785        N792   1.433       .  S
C786        C787   1.397       .  A
C786        H791   1.084       .  S
C787        C788   1.414       .  A
C788        N789   1.438       .  S
N789        O793   1.263       .  A
N789        O794   1.262       .  A
N792        O795   1.262       .  A
N792        O796   1.262       .  A
C797        C798   1.410       .  A
C797        C802   1.401       .  A
C797        H804   1.083       .  S
C798        C799   1.418       .  A
C799        C800   1.414       .  A
C799        N806   1.433       .  S
C800        C801   1.411       .  A
C800        H805   1.083       .  S
C801        C802   1.415       .  A
C802        N803   1.435       .  S
N803        O807   1.263       .  A
N803        O808   1.263       .  A
N806        O809   1.262       .  A
N806        O810   1.262       .  A
C811        C812   1.408       .  A
C811        C816   1.407       .  A
C811        H818   1.083       .  S
C812       C2617   1.486       .  S
C812        C813   1.403       .  A
C813        C814   1.399       .  A
C813       N2860   1.425       .  S
C814        C815   1.412       .  A
C814        H819   1.084       .  S
C815        C816   1.416       .  A
C816        N817   1.433       .  S
N817        O821   1.262       .  A
N817        O822   1.262       .  A
N820       C2853   1.425   1_455  S
N820        O823   1.261       .  A
N820        O824   1.261       .  A
C825       C2866   1.401   1_554  A
C825        H832   1.084   1_554  S
C826       C2865   1.401   1_556  A
C826       C2867   1.414       .  A
C827       C2866   1.414       .  A
C827       N2874   1.440       .  S
C828        C829   1.403       .  A
C828        H833   1.083       .  S
C829        C830   1.413       .  A
C830        N831   1.436       .  S
N831        O835   1.263   1_455  A
N831        O836   1.261       .  A
N834       C2867   1.440       .  S
N834        O837   1.261       .  A
N834       O2878   1.263       .  A
O838       N2874   1.263   1_455  A
C839        C840   1.402       .  A
C839       C2884   1.413   1_455  A
C839        H846   1.084       .  S
C840        C841   1.412       .  A
C841        C842   1.392       .  A
C841        N848   1.431       .  S
C842       C2883   1.401   1_455  A
C842        H847   1.085       .  S
C843       C2882   1.401       .  A
C843        C844   1.422       .  A
C844       C2879   1.413       .  A
C844        N845   1.436       .  S
N845        O849   1.263       .  A
N845        O850   1.261       .  A
N848        O851   1.261       .  A
N848        O852   1.262       .  A
C853       C1874   1.399       .  A
C853        C858   1.402   1_556  A
C853        H860   1.084       .  S
C854       C1873   1.399   1_545  A
C855        C856   1.401       .  A
C855        N862   1.436       .  S
C856       C1877   1.403   1_545  A
C856        H861   1.083       .  S
C857       C1876   1.403       .  A
C858        N859   1.440   1_554  S
N859        O863   1.263       .  A
N859        O864   1.262   1_556  A
N862        O865   1.262       .  A
N862        O866   1.263       .  A
C867        C868   1.400       .  A
C867       C1892   1.408   1_545  A
C867        H874   1.083       .  S
C868        C869   1.419       .  A
C869        C870   1.405       .  A
C869        N876   1.440       .  S
C870       C1891   1.399   1_545  A
C870        H875   1.082       .  S
C871       C1890   1.399       .  A
C871        C872   1.412       .  A
C872       C1887   1.408       .  A
C872        N873   1.433       .  S
N873        O877   1.262       .  A
N873        O878   1.262       .  A
N876        O879   1.259       .  A
N876        O880   1.263       .  A
C881        C882   1.401       .  A
C881        C886   1.402       .  A
C881        H888   1.084       .  S
C882        C883   1.415       .  A
C883        C884   1.391       .  A
C883        N890   1.441       .  S
C884        C885   1.404       .  A
C884        H889   1.081       .  S
C885        C886   1.414       .  A
C886        N887   1.442       .  S
N887        O891   1.263       .  A
N887        O892   1.260       .  A
N890       O2933   1.260   1_455  A
N890        O894   1.263       .  A
O893       N2930   1.260       .  A
C895        C896   1.400       .  A
C895        C900   1.400       .  A
C895        H902   1.084       .  S
C896        C897   1.411       .  A
C897        C898   1.395       .  A
C897        N904   1.435       .  S
C898        C899   1.398       .  A
C898        H903   1.085       .  S
C899        C900   1.412       .  A
C900        N901   1.436       .  S
N901        O905   1.263       .  A
N901        O906   1.261       .  A
N904        O907   1.261       .  A
N904        O908   1.263       .  A
C909        C914   1.404   1_554  A
C909        H916   1.085       .  S
C910       C2951   1.414   1_455  A
C911       C2950   1.414       .  A
C911        C912   1.413       .  A
C911        N918   1.439       .  S
C912        H917   1.083       .  S
C913       C2954   1.411       .  A
C914       C2953   1.411   1_455  A
C914        N915   1.433       .  S
N915        O919   1.262       .  A
N915        O920   1.262       .  A
N918       O2961   1.263       .  A
N918        O922   1.262       .  A
O921       N2958   1.263       .  A
C923       C2964   1.412       .  A
C923        C928   1.417   1_655  A
C923        H930   1.083       .  S
C924       C2963   1.412       .  A
C924        C925   1.407       .  A
C925       C2966   1.397       .  A
C925        N932   1.427       .  S
C926       C2965   1.397       .  A
C926        C927   1.403   1_655  A
C926        H931   1.085       .  S
C927        C928   1.416       .  A
C928        N929   1.442       .  S
N929        O933   1.263       .  A
N929        O934   1.262       .  A
N932        O935   1.261       .  A
N932        O936   1.262       .  A
C937        C938   1.412       .  A
C937        C942   1.415       .  A
C937        H944   1.083       .  S
C938        C939   1.427       .  A
C939        C940   1.406       .  A
C939        N946   1.436       .  S
C940        C941   1.402       .  A
C940        H945   1.083       .  S
C941       C1569   1.500       .  S
C941        C942   1.417       .  A
C942       N1963   1.442       .  S
N943       C1962   1.442   1_545  S
N943        O947   1.262       .  A
N943        O948   1.263       .  A
N946        O949   1.263       .  A
N946        O950   1.262       .  A
C951        C952   1.404       .  A
C951        C956   1.412       .  A
C951        H958   1.081       .  S
C952        C953   1.407       .  A
C953        C954   1.396       .  A
C953        N960   1.442       .  S
C954        C955   1.410       .  A
C954        H959   1.083       .  S
C955        C956   1.418       .  A
C956        N957   1.435       .  S
N957        O961   1.263       .  A
N957        O962   1.262       .  A
N960        O963   1.262       .  A
N960       O3004   1.262       .  A
O964       N3000   1.262       .  A
C965        C966   1.409       .  A
C965        C970   1.394       .  A
C965        H972   1.083       .  S
C966       C2562   1.494       .  S
C966        C967   1.415       .  A
C967        C968   1.413       .  A
C967        N974   1.434       .  S
C968        C969   1.409       .  A
C968        H973   1.076       .  S
C969       C1627   1.488       .  S
C969        C970   1.405       .  A
C970       N1991   1.429       .  S
N971       C1990   1.429   1_545  S
N971        O975   1.261       .  A
N971        O976   1.262       .  A
N974        O977   1.262       .  A
N974        O978   1.262       .  A
C979        C980   1.403       .  A
C979        C984   1.401       .  A
C979        H986   1.084       .  S
C980        C981   1.418       .  A
C981        C982   1.404       .  A
C981        N988   1.433       .  S
C982        C983   1.404       .  A
C982        H987   1.084       .  S
C983        C984   1.421       .  A
C984        N985   1.433       .  S
N985        O989   1.263       .  A
N985        O990   1.260       .  A
N988        O991   1.262       .  A
N988        O992   1.262       .  A
C993        C994   1.405       .  A
C993       H1000   1.084   1_556  S
C994        C995   1.416       .  A
C995        C996   1.400       .  A
C995       N1002   1.425       .  S
C996       H1001   1.082       .  S
C997        C998   1.412       .  A
C998        N999   1.429       .  S
N999       O1003   1.262       .  A
N999       O1004   1.261       .  A
N1002      O1005   1.262       .  A
N1002      O1006   1.262       .  A
C1007      C1008   1.398       .  A
C1007      C1012   1.384       .  A
C1007      H1014   1.085       .  S
C1008      C1009   1.412       .  A
C1009      C1010   1.409       .  A
C1009      N1016   1.431       .  S
C1010      C1011   1.410       .  A
C1010      H1015   1.083       .  S
C1011      C1012   1.422       .  A
C1012      N1013   1.437       .  S
N1013      O1017   1.263       .  A
N1013      O1018   1.259       .  A
N1016      O1019   1.261       .  A
N1016      O1020   1.262       .  A
O1021      C1029   1.263       .  A
O1021     Co1041   1.976       .  S
O1022      C1030   1.269       .  A
O1022     Co1042   1.960       .  S
O1023      C1031   1.311       .  A
O1023     Co1043   2.133       .  S
O1024      C1032   1.264       .  A
O1024     Co1044   2.054       .  S
O1025      C1031   1.281       .  A
O1025     Co1042   1.875       .  S
O1026      C1032   1.243       .  A
O1026     Co1041   1.933       .  S
O1027      C1030   1.278       .  A
O1027     Co1044   2.042       .  S
O1028      C1029   1.264       .  A
O1028     Co1043   2.021       .  S
C1029      C1448   1.509       .  S
C1030      C1423   1.490       .  S
C1031      C1504   1.489       .  S
C1032      C3516   1.494       .  S
O1033      C1046   1.285       .  A
O1033     Co1041   2.065       .  S
O1034      C1047   1.246       .  A
O1034     Co1042   2.023       .  S
O1035      C1048   1.262       .  A
O1035     Co1043   1.979       .  S
O1036      C1049   1.257       .  A
O1036     Co1044   1.950       .  S
O1037      C1049   1.274       .  A
O1037     Co1042   2.052       .  S
O1038      C1048   1.258       .  A
O1038     Co1041   1.980       .  S
O1039      C1046   1.261       .  A
O1039     Co1044   1.949       .  S
O1040      C1047   1.242       .  A
O1040     Co1043   1.969       .  S
Co1041     O1045   2.057       .  S
Co1042     O1045   2.032       .  S
Co1043     O1045   2.115       .  S
Co1044     O1045   2.091       .  S
C1046      C1434   1.492       .  S
C1047      C1493   1.492       .  S
C1048      C1521   1.486       .  S
C1049      C1465   1.493       .  S
O1050      C1058   1.269       .  A
O1050     Co1070   1.887       .  S
O1051      C1059   1.245       .  A
O1051     Co1071   1.983       .  S
O1052      C1060   1.268       .  A
O1052     Co3112   1.988       .  S
O1053      C1061   1.272       .  A
O1053     Co1073   2.029       .  S
O1054      C3100   1.256       .  A
O1054     Co1071   1.963       .  S
O1055      C1061   1.262       .  A
O1055     Co1070   1.975       .  S
O1056      C1059   1.253       .  A
O1056     Co1073   2.009       .  S
O1057      C1058   1.303       .  A
O1057     Co1072   2.092       .  S
C1058      C1353   1.485       .  S
C1060      O3094   1.256       .  A
C1060      C1392   1.461   1_655  S
C1061      C1378   1.478       .  S
O1062      C1075   1.270       .  A
O1062     Co1070   2.000       .  S
O1063      C1076   1.264       .  A
O1063     Co1071   1.980       .  S
O1064      C1077   1.249       .  A
O1064     Co1072   1.981       .  S
O1065      C1078   1.302       .  A
O1065     Co1073   2.073       .  S
O1066      C1078   1.273       .  A
O1066     Co1071   1.888       .  S
O1067      C1077   1.249       .  A
O1067     Co1070   1.979       .  S
O1068      C1075   1.265       .  A
O1068     Co1073   1.972       .  S
O1069      C1076   1.267       .  A
O1069     Co1072   2.004       .  S
Co1070     O1074   1.932       .  S
Co1071     O1074   1.910       .  S
Co1072     O3092   1.988       .  S
Co1072     O1074   2.135       .  S
Co1073     O1074   2.159       .  S
C1075      C1409   1.458       .  S
C1076      C1336   1.471       .  S
C1077      C1462   1.472       .  S
C1078      C1364   1.462       .  S
O1079      C1087   1.257       .  A
O1079     Co1099   2.021       .  S
O1080      C1088   1.255       .  A
O1080     Co1100   2.007       .  S
O1081      C1089   1.253       .  A
O1081     Co1101   1.969       .  S
O1082      C1090   1.245       .  A
O1082     Co1102   1.943       .  S
O1083      C1089   1.261       .  A
O1083     Co1100   1.991       .  S
O1084      C1090   1.273       .  A
O1084     Co1099   2.064       .  S
O1085      C1088   1.248       .  A
O1085     Co1102   1.970       .  S
O1086      C1087   1.254       .  A
O1086     Co1101   1.968       .  S
C1087      C3362   1.486   1_455  S
C1088      C1255   1.472       .  S
C1090      C1420   1.482       .  S
O1091      C1104   1.258       .  A
O1091     Co1099   1.955       .  S
O1092      C1105   1.251       .  A
O1092     Co1100   1.947       .  S
O1093      C1106   1.280       .  A
O1093     Co1101   2.035       .  S
O1094      C1107   1.276       .  A
O1094     Co1102   2.059       .  S
O1095      C1107   1.254       .  A
O1095     Co1100   1.944       .  S
O1096      C1106   1.267       .  A
O1096     Co1099   1.941       .  S
O1097      C1104   1.271       .  A
O1097     Co1102   2.023       .  S
O1098      C1105   1.254       .  A
O1098     Co1101   1.982       .  S
Co1099     O1103   2.053       .  S
Co1100     O1103   2.114       .  S
Co1101     O1103   2.163       .  S
Co1102     O1103   2.089       .  S
C1104      C1294   1.469       .  S
C1105      C1269   1.486       .  S
C1106      C1437   1.479       .  S
C1107      C1308   1.503       .  S
O1108      C1116   1.270       .  A
O1108     Co1128   2.040       .  S
O1109      C1117   1.275       .  A
O1109     Co1129   2.016       .  S
O1110      C1118   1.257       .  A
O1110     Co1130   1.949       .  S
O1111      C1119   1.258       .  A
O1111     Co1131   1.858       .  S
O1112      C1118   1.272       .  A
O1112     Co1129   2.032       .  S
O1113      C1119   1.300       .  A
O1113     Co1128   2.124       .  S
O1114      C1117   1.277       .  A
O1114     Co1131   1.989       .  S
O1115      C1116   1.256       .  A
O1115     Co1130   1.967       .  S
C1116      C1227   1.495       .  S
C1118      C1266   1.472       .  S
C1119      C1395   1.478       .  S
O1120      C1133   1.270       .  A
O1120     Co1128   1.909       .  S
O1121      C1134   1.259       .  A
O1121     Co1129   1.952       .  S
O1122      C1135   1.276       .  A
O1122     Co1130   2.025       .  S
O1123      C1136   1.256       .  A
O1123     Co1131   1.980       .  S
O1124      C1136   1.259       .  A
O1124     Co1129   1.984       .  S
O1125      C1135   1.269       .  A
O1125     Co1128   1.968       .  S
O1126      C1133   1.298       .  A
O1126     Co1131   2.103       .  S
O1127      C1134   1.269       .  A
O1127     Co1130   2.016       .  S
Co1128     O1132   2.031       .  S
Co1129     O1132   2.056       .  S
Co1130     O1132   2.020       .  S
Co1131     O1132   1.978       .  S
C1133      C1241   1.490       .  S
C1134      C1406   1.458       .  S
C1135      C1490   1.491       .  S
C1136      C1252   1.478       .  S
O1137      C1145   1.279       .  A
O1137     Co1157   2.045       .  S
O1138      C1146   1.265       .  A
O1138     Co1158   2.046       .  S
O1139      C1147   1.261       .  A
O1139     Co1159   1.903       .  S
O1140      C1148   1.248       .  A
O1140     Co1160   1.932       .  S
O1141      C1147   1.296       .  A
O1141     Co1158   2.108       .  S
O1142      C1148   1.268       .  A
O1142     Co1157   2.031       .  S
O1143      C1146   1.246       .  A
O1143     Co1160   1.953       .  S
O1144      C1145   1.261       .  A
O1144     Co1159   1.962       .  S
C1145      C3239   1.473   1_455  S
C1146      C1238   1.496       .  S
C1147      C1339   1.473       .  S
C1148      C1280   1.472       .  S
O1149      C1162   1.261       .  A
O1149     Co1157   1.963       .  S
O1150      C1163   1.266       .  A
O1150     Co1158   1.897       .  S
O1151      C1164   1.257       .  A
O1151     Co1159   2.015       .  S
O1152      C1165   1.275       .  A
O1152     Co1160   2.022       .  S
O1153      C1165   1.262       .  A
O1153     Co1158   1.969       .  S
O1154      C1164   1.249       .  A
O1154     Co1157   1.959       .  S
O1155      C1162   1.277       .  A
O1155     Co1160   2.047       .  S
O1156      C1163   1.293       .  A
O1156     Co1159   2.081       .  S
Co1157     O1161   2.045       .  S
Co1158     O1161   2.033       .  S
Co1159     O1161   2.028       .  S
Co1160     O1161   2.022       .  S
C1162      C1224   1.503       .  S
C1163      C1297   1.463       .  S
C1164      C1350   1.478       .  S
C1165      C1210   1.469       .  S
O1166      C1174   1.257       .  A
O1166     Co1186   1.962       .  S
O1167      C1175   1.269       .  A
O1167     Co1187   1.967       .  S
O1168      C1176   1.287       .  A
O1168     Co1188   2.085       .  S
O1169      C1177   1.272       .  A
O1169     Co1189   2.059   1_545  S
O1170      C1176   1.266       .  A
O1170     Co1187   1.904       .  S
O1171      C1177   1.247   1_565  A
O1171     Co1186   1.942       .  S
O1172      C1175   1.275       .  A
O1172     Co1189   2.013       .  S
O1173      C1174   1.269       .  A
O1173     Co1188   2.034       .  S
C1174      C1325   1.494       .  S
C1175      C1367   1.470       .  S
C1176      C1507   1.476       .  S
O1178      C1191   1.283       .  A
O1178     Co1186   2.054       .  S
O1179      C1192   1.297       .  A
O1179     Co1187   2.102       .  S
O1180      C1193   1.271       .  A
O1180     Co1188   1.980       .  S
O1181      C1194   1.263       .  A
O1181     Co1189   1.985       .  S
O1182      C1194   1.266       .  A
O1182     Co1187   2.012       .  S
O1183      C1193   1.272       .  A
O1183     Co1186   1.986       .  S
O1184      C1191   1.264       .  A
O1184     Co1189   1.964       .  S
O1185      C1192   1.271       .  A
O1185     Co1188   1.887       .  S
Co1186     O1190   1.993       .  S
Co1187     O1190   1.996       .  S
Co1188     O1190   2.027       .  S
Co1189     O1190   2.057       .  S
C1191      C1381   1.484       .  S
C1192      C1213   1.470       .  S
C1193      C1518   1.479       .  S
C1194      C1311   1.500       .  S
C1195      C1196   1.414       .  A
C1195      C1200   1.404       .  A
C1195      H1202   1.083       .  S
C1196      C1197   1.411       .  A
C1197      C1198   1.407       .  A
C1197      N1204   1.430       .  S
C1198      C1199   1.406       .  A
C1198      H1203   1.084       .  S
C1199      C3185   1.473       .  S
C1199      C1200   1.407       .  A
C1200      N3241   1.440       .  S
N1201      C3240   1.440   1_455  S
N1201      O1205   1.261       .  A
N1201      O1206   1.261       .  A
N1204      O1207   1.260       .  A
N1204      O1208   1.262       .  A
C1209      C1210   1.401       .  A
C1209      C1214   1.394       .  A
C1209      H1216   1.084       .  S
C1210      C1211   1.420       .  A
C1211      C1212   1.413       .  A
C1211      N1218   1.446       .  S
C1212      C1213   1.403       .  A
C1212      H1217   1.083       .  S
C1213      C1214   1.405       .  A
C1214      N1215   1.431       .  S
N1215      O1219   1.262       .  A
N1215      O1220   1.262       .  A
N1218      O1221   1.261       .  A
N1218      O1222   1.263       .  A
C1223      C1224   1.410       .  A
C1223      C1228   1.408       .  A
C1223      H1230   1.083       .  S
C1224      C1225   1.416       .  A
C1225      C1226   1.411       .  A
C1225      N1232   1.437       .  S
C1226      C1227   1.409       .  A
C1226      H1231   1.084       .  S
C1227      C1228   1.410       .  A
C1228      N1229   1.431       .  S
N1229      O1233   1.262       .  A
N1229      O1234   1.263       .  A
N1232      O1235   1.263       .  A
N1232      O1236   1.262       .  A
C1237      C1238   1.410       .  A
C1237      C1752   1.422   1_554  A
C1237      H1244   1.083       .  S
C1238      C1239   1.418       .  A
C1239      C1750   1.390   1_554  A
C1239      N1246   1.432       .  S
C1240      C1749   1.390       .  A
C1240      C1241   1.398       .  A
C1240      H1245   1.082       .  S
C1241      C1242   1.421       .  A
C1242      C1747   1.422       .  A
C1242      N1243   1.440       .  S
N1243      O1247   1.263       .  A
N1243      O1248   1.263       .  A
N1246      O1249   1.262       .  A
N1246      O1250   1.262       .  A
C1251      C1762   1.404   1_554  A
C1251      C1256   1.405       .  A
C1251      H1258   1.084       .  S
C1252      C1761   1.404       .  A
C1253      C1254   1.403   1_545  A
C1253      N1260   1.435       .  S
C1254      C1765   1.402       .  A
C1254      H1259   1.084       .  S
C1255      C1764   1.402       .  A
C1256      N1257   1.444       .  S
N1257      O1261   1.263       .  A
N1257      O1262   1.261       .  A
N1260      O1264   1.263   1_545  A
C1265      C1266   1.407       .  A
C1266      C1267   1.409       .  A
C1267      C1268   1.385       .  A
C1267      N1274   1.440       .  S
C1268      H1273   1.083       .  S
C1269      C1270   1.414       .  A
C1270      N1271   1.434       .  S
N1271      O1275   1.262       .  A
N1271      O1276   1.262       .  A
N1274      O1277   1.261       .  A
N1274      O1278   1.263       .  A
C1279      C1280   1.410       .  A
C1279      C1284   1.403       .  A
C1279      H1286   1.084       .  S
C1280      C1281   1.402       .  A
C1281      C1282   1.398       .  A
C1281      N1288   1.434       .  S
C1282      C1283   1.413       .  A
C1282      H1287   1.083       .  S
C1283      C1284   1.411       .  A
C1284      N1285   1.440       .  S
N1285      O1289   1.263       .  A
N1285      O1290   1.263       .  A
N1288      O1291   1.262       .  A
N1288      O1292   1.262       .  A
C1293      C1294   1.403       .  A
C1293      C1298   1.407       .  A
C1293      H1300   1.084       .  S
C1294      C1295   1.412       .  A
C1295      C1296   1.394       .  A
C1295      N1302   1.433       .  S
C1296      C1297   1.397       .  A
C1296      H1301   1.084       .  S
C1297      C1298   1.414       .  A
C1298      N1299   1.438       .  S
N1299      O1303   1.263       .  A
N1299      O1304   1.262       .  A
N1302      O1305   1.262       .  A
N1302      O1306   1.262       .  A
C1307      C1308   1.410       .  A
C1307      C1312   1.401       .  A
C1307      H1314   1.083       .  S
C1308      C1309   1.418       .  A
C1309      C1310   1.414       .  A
C1309      N1316   1.433       .  S
C1310      C1311   1.411       .  A
C1310      H1315   1.083       .  S
C1311      C1312   1.415       .  A
C1312      N1313   1.435       .  S
N1313      O1317   1.263       .  A
N1313      O1318   1.263       .  A
N1316      O1319   1.262       .  A
N1316      O1320   1.262       .  A
C1321      C1322   1.408       .  A
C1321      C1326   1.407       .  A
C1321      H1328   1.083       .  S
C1322      C3127   1.486       .  S
C1322      C1323   1.403       .  A
C1323      C1324   1.399       .  A
C1323      N3370   1.425       .  S
C1324      C1325   1.412       .  A
C1324      H1329   1.084       .  S
C1325      C1326   1.416       .  A
C1326      N1327   1.433       .  S
N1327      O1331   1.262       .  A
N1327      O1332   1.262       .  A
N1330      C3363   1.425   1_455  S
N1330      O1333   1.261       .  A
N1330      O1334   1.261       .  A
C1335      C3376   1.401       .  A
C1335      C1850   1.401   1_655  A
C1335      H1342   1.084       .  S
C1336      C3375   1.401       .  A
C1336      C3377   1.414       .  A
C1337      C3376   1.414       .  A
C1337      C1848   1.408   1_655  A
C1337      N3384   1.440       .  S
C1338      C1847   1.408   1_454  A
C1338      C1339   1.403       .  A
C1338      H1343   1.083       .  S
C1339      C1340   1.413       .  A
C1340      C1845   1.401   1_455  A
C1340      N1341   1.436       .  S
N1341      O1345   1.263   1_455  A
N1341      O1346   1.261       .  A
N1344      C3377   1.440       .  S
N1344      O1347   1.261       .  A
N1344      O3388   1.263       .  A
O1348      N3384   1.263   1_455  A
C1349      C1350   1.402       .  A
C1349      C3394   1.413   1_455  A
C1349      H1356   1.084       .  S
C1350      C1351   1.412       .  A
C1351      C1352   1.392       .  A
C1351      N1358   1.431       .  S
C1352      C3393   1.401   1_455  A
C1352      H1357   1.085       .  S
C1353      C3392   1.401       .  A
C1353      C1354   1.422       .  A
C1354      C3389   1.413       .  A
C1354      N1355   1.436       .  S
N1355      O1359   1.263       .  A
N1355      O1360   1.261       .  A
N1358      O1361   1.261       .  A
N1358      O1362   1.262       .  A
C1363      C1368   1.402       .  A
C1363      H1370   1.084       .  S
C1364      C1875   1.409       .  A
C1365      C1874   1.409   1_554  A
C1365      C1366   1.401       .  A
C1365      N1372   1.436       .  S
C1366      H1371   1.083       .  S
C1367      C1878   1.415       .  A
C1368      C1877   1.415       .  A
C1368      N1369   1.440       .  S
N1369      O1373   1.263       .  A
N1369      O1374   1.262       .  A
N1372      O1375   1.262       .  A
N1372      O1376   1.263       .  A
C1377      C1378   1.400       .  A
C1377      H1384   1.083       .  S
C1378      C1379   1.419       .  A
C1379      C1380   1.405       .  A
C1379      N1386   1.440       .  S
C1380      H1385   1.082       .  S
C1381      C1382   1.412       .  A
C1382      N1383   1.433       .  S
N1383      O1387   1.262       .  A
N1383      O1388   1.262       .  A
N1386      O1389   1.259       .  A
N1386      O1390   1.263       .  A
C1391      C1392   1.401       .  A
C1391      C1396   1.402       .  A
C1391      H1398   1.084       .  S
C1392      C1393   1.415       .  A
C1393      C1394   1.391       .  A
C1393      N1400   1.441       .  S
C1394      C1395   1.404       .  A
C1394      H1399   1.081       .  S
C1395      C1396   1.414       .  A
C1396      N1397   1.442       .  S
N1397      O1401   1.263       .  A
N1397      O1402   1.260       .  A
N1400      O3443   1.260   1_455  A
N1400      O1404   1.263       .  A
O1403      N3440   1.260       .  A
C1405      C1406   1.400       .  A
C1405      C1410   1.400       .  A
C1405      H1412   1.084       .  S
C1406      C1407   1.411       .  A
C1407      C1408   1.395       .  A
C1407      N1414   1.435       .  S
C1408      C1409   1.398       .  A
C1408      H1413   1.085       .  S
C1409      C1410   1.412       .  A
C1410      N1411   1.436       .  S
N1411      O1415   1.263       .  A
N1411      O1416   1.261       .  A
N1414      O1417   1.261       .  A
N1414      O1418   1.263       .  A
C1419      C1930   1.408       .  A
C1419      C1424   1.404       .  A
C1419      H1426   1.085       .  S
C1420      C1929   1.408       .  A
C1420      C3461   1.414   1_455  A
C1421      C3460   1.414       .  A
C1421      C1422   1.413   1_554  A
C1421      N1428   1.439       .  S
C1422      C1933   1.408       .  A
C1422      H1427   1.083       .  S
C1423      C1932   1.408       .  A
C1423      C3464   1.411       .  A
C1424      C3463   1.411   1_455  A
C1424      N1425   1.433       .  S
N1425      O1429   1.262       .  A
N1425      O1430   1.262       .  A
N1428      O3471   1.263       .  A
N1428      O1432   1.262       .  A
O1431      N3468   1.263       .  A
C1433      C3474   1.412       .  A
C1433      C1438   1.417   1_655  A
C1433      H1440   1.083       .  S
C1434      C3473   1.412       .  A
C1434      C1435   1.407       .  A
C1435      C3476   1.397       .  A
C1435      N1442   1.427       .  S
C1436      C3475   1.397       .  A
C1436      C1437   1.403   1_655  A
C1436      H1441   1.085       .  S
C1437      C1438   1.416       .  A
C1438      N1439   1.442       .  S
N1439      O1443   1.263       .  A
N1439      O1444   1.262       .  A
N1442      O1445   1.261       .  A
N1442      O1446   1.262       .  A
C1447      C1448   1.412       .  A
C1447      C1452   1.415       .  A
C1447      H1454   1.083       .  S
C1448      C1449   1.427       .  A
C1449      C1450   1.406       .  A
C1449      N1456   1.436       .  S
C1450      C1451   1.402       .  A
C1450      H1455   1.083       .  S
C1451      C1452   1.417       .  A
N1453      O1457   1.262       .  A
N1453      O1458   1.263       .  A
N1456      O1459   1.263       .  A
N1456      O1460   1.262       .  A
C1461      C1462   1.404       .  A
C1461      C1466   1.412       .  A
C1461      H1468   1.081       .  S
C1462      C1463   1.407       .  A
C1463      C1464   1.396       .  A
C1463      N1470   1.442       .  S
C1464      C1465   1.410       .  A
C1464      H1469   1.083       .  S
C1465      C1466   1.418       .  A
C1466      N1467   1.435       .  S
N1467      O1471   1.263       .  A
N1467      O1472   1.262       .  A
N1470      O1473   1.262       .  A
N1470      O3514   1.262       .  A
O1474      N3510   1.262       .  A
C1475      C1476   1.409       .  A
C1475      C1480   1.394       .  A
C1475      H1482   1.083       .  S
C1476      C3072   1.494       .  S
C1476      C1477   1.415       .  A
C1477      C1478   1.413       .  A
C1477      N1484   1.434       .  S
C1478      C1479   1.409       .  A
C1478      H1483   1.076       .  S
C1479      C1480   1.405       .  A
N1481      O1485   1.261       .  A
N1481      O1486   1.262       .  A
N1484      O1487   1.262       .  A
N1484      O1488   1.262       .  A
C1489      C1490   1.403       .  A
C1489      C1494   1.401       .  A
C1489      H1496   1.084       .  S
C1490      C1491   1.418       .  A
C1491      C1492   1.404       .  A
C1491      N1498   1.433       .  S
C1492      C1493   1.404       .  A
C1492      H1497   1.084       .  S
C1493      C1494   1.421       .  A
C1494      N1495   1.433       .  S
N1495      O1499   1.263       .  A
N1495      O1500   1.260       .  A
N1498      O1501   1.262       .  A
N1498      O1502   1.262       .  A
C1503      C1504   1.405       .  A
C1503      C2018   1.402       .  A
C1503      H1510   1.084       .  S
C1504      C1505   1.416       .  A
C1505      C1506   1.400       .  A
C1505      N1512   1.425       .  S
C1506      C2017   1.393       .  A
C1506      H1511   1.082       .  S
C1507      C2016   1.393   1_554  A
C1507      C1508   1.412       .  A
C1508      C2013   1.402   1_554  A
C1508      N1509   1.429       .  S
N1509      O1513   1.262       .  A
N1509      O1514   1.261       .  A
N1512      O1515   1.262       .  A
N1512      O1516   1.262       .  A
C1517      C1518   1.398       .  A
C1517      C1522   1.384       .  A
C1517      H1524   1.085       .  S
C1518      C1519   1.412       .  A
C1519      C1520   1.409       .  A
C1519      N1526   1.431       .  S
C1520      C1521   1.410       .  A
C1520      H1525   1.083       .  S
C1521      C1522   1.422       .  A
C1522      N1523   1.437       .  S
N1523      O1527   1.263       .  A
N1523      O1528   1.259       .  A
N1526      O1529   1.261       .  A
N1526      O1530   1.262       .  A
O1531      C1539   1.263       .  A
O1531     Co1551   1.976       .  S
O1532      C1540   1.269       .  A
O1532     Co1552   1.960       .  S
O1533      C1541   1.311       .  A
O1533     Co1553   2.133       .  S
O1534      C1542   1.264       .  A
O1534     Co1554   2.054       .  S
O1535      C1541   1.281       .  A
O1535     Co1552   1.875       .  S
O1536      C1542   1.243       .  A
O1536     Co1551   1.933       .  S
O1537      C1540   1.278       .  A
O1537     Co1554   2.042       .  S
O1538      C1539   1.264       .  A
O1538     Co1553   2.021       .  S
C1539      C1958   1.509       .  S
C1540      C1933   1.490       .  S
C1541      C2014   1.489       .  S
C1542      C4026   1.494       .  S
O1543      C1556   1.285       .  A
O1543     Co1551   2.065       .  S
O1544      C1557   1.246       .  A
O1544     Co1552   2.023       .  S
O1545      C1558   1.262       .  A
O1545     Co1553   1.979       .  S
O1546      C1559   1.257       .  A
O1546     Co1554   1.950       .  S
O1547      C1559   1.274       .  A
O1547     Co1552   2.052       .  S
O1548      C1558   1.258       .  A
O1548     Co1551   1.980       .  S
O1549      C1556   1.261       .  A
O1549     Co1554   1.949       .  S
O1550      C1557   1.242       .  A
O1550     Co1553   1.969       .  S
Co1551     O1555   2.057       .  S
Co1552     O1555   2.032       .  S
Co1553     O1555   2.115       .  S
Co1554     O1555   2.091       .  S
C1556      C1944   1.492       .  S
C1557      C2003   1.492       .  S
C1558      C2031   1.486       .  S
C1559      C1975   1.493       .  S
O1560      C1568   1.269       .  A
O1560     Co1580   1.887       .  S
O1561      C1569   1.245       .  A
O1561     Co1581   1.983       .  S
O1562      C1570   1.268       .  A
O1562     Co3622   1.988       .  S
O1563      C1571   1.272       .  A
O1563     Co1583   2.029       .  S
O1564      C3610   1.256       .  A
O1564     Co1581   1.963       .  S
O1565      C1571   1.262       .  A
O1565     Co1580   1.975       .  S
O1566      C1569   1.253       .  A
O1566     Co1583   2.009       .  S
O1567      C1568   1.303       .  A
O1567     Co1582   2.092       .  S
C1568      C1863   1.485       .  S
C1570      O3604   1.256       .  A
C1570      C1902   1.461   1_655  S
C1571      C1888   1.478       .  S
O1572      C1585   1.270       .  A
O1572     Co1580   2.000       .  S
O1573      C1586   1.264       .  A
O1573     Co1581   1.980       .  S
O1574      C1587   1.249       .  A
O1574     Co1582   1.981       .  S
O1575      C1588   1.302       .  A
O1575     Co1583   2.073       .  S
O1576      C1588   1.273       .  A
O1576     Co1581   1.888       .  S
O1577      C1587   1.249       .  A
O1577     Co1580   1.979       .  S
O1578      C1585   1.265       .  A
O1578     Co1583   1.972       .  S
O1579      C1586   1.267       .  A
O1579     Co1582   2.004       .  S
Co1580     O1584   1.932       .  S
Co1581     O1584   1.910       .  S
Co1582     O3602   1.988       .  S
Co1582     O1584   2.135       .  S
Co1583     O1584   2.159       .  S
C1585      C1919   1.458       .  S
C1586      C1846   1.471       .  S
C1587      C1972   1.472       .  S
C1588      C1874   1.462       .  S
O1589      C1597   1.257       .  A
O1589     Co1609   2.021       .  S
O1590      C1598   1.255       .  A
O1590     Co1610   2.007       .  S
O1591      C1599   1.253       .  A
O1591     Co1611   1.969       .  S
O1592      C1600   1.245       .  A
O1592     Co1612   1.943       .  S
O1593      C1599   1.261       .  A
O1593     Co1610   1.991       .  S
O1594      C1600   1.273       .  A
O1594     Co1609   2.064       .  S
O1595      C1598   1.248       .  A
O1595     Co1612   1.970       .  S
O1596      C1597   1.254       .  A
O1596     Co1611   1.968       .  S
C1597      C3872   1.486   1_455  S
C1598      C1765   1.472       .  S
C1600      C1930   1.482       .  S
O1601      C1614   1.258       .  A
O1601     Co1609   1.955       .  S
O1602      C1615   1.251       .  A
O1602     Co1610   1.947       .  S
O1603      C1616   1.280       .  A
O1603     Co1611   2.035       .  S
O1604      C1617   1.276       .  A
O1604     Co1612   2.059       .  S
O1605      C1617   1.254       .  A
O1605     Co1610   1.944       .  S
O1606      C1616   1.267       .  A
O1606     Co1609   1.941       .  S
O1607      C1614   1.271       .  A
O1607     Co1612   2.023       .  S
O1608      C1615   1.254       .  A
O1608     Co1611   1.982       .  S
Co1609     O1613   2.053       .  S
Co1610     O1613   2.114       .  S
Co1611     O1613   2.163       .  S
Co1612     O1613   2.089       .  S
C1614      C1804   1.469       .  S
C1615      C1779   1.486       .  S
C1616      C1947   1.479       .  S
C1617      C1818   1.503       .  S
O1618      C1626   1.270       .  A
O1618     Co1638   2.040       .  S
O1619      C1627   1.275       .  A
O1619     Co1639   2.016       .  S
O1620      C1628   1.257       .  A
O1620     Co1640   1.949       .  S
O1621      C1629   1.258       .  A
O1621     Co1641   1.858       .  S
O1622      C1628   1.272       .  A
O1622     Co1639   2.032       .  S
O1623      C1629   1.300       .  A
O1623     Co1638   2.124       .  S
O1624      C1627   1.277       .  A
O1624     Co1641   1.989       .  S
O1625      C1626   1.256       .  A
O1625     Co1640   1.967       .  S
C1626      C1737   1.495       .  S
C1628      C1776   1.472       .  S
C1629      C1905   1.478       .  S
O1630      C1643   1.270       .  A
O1630     Co1638   1.909       .  S
O1631      C1644   1.259       .  A
O1631     Co1639   1.952       .  S
O1632      C1645   1.276       .  A
O1632     Co1640   2.025       .  S
O1633      C1646   1.256       .  A
O1633     Co1641   1.981       .  S
O1634      C1646   1.259       .  A
O1634     Co1639   1.983       .  S
O1635      C1645   1.269       .  A
O1635     Co1638   1.968       .  S
O1636      C1643   1.298       .  A
O1636     Co1641   2.103       .  S
O1637      C1644   1.269       .  A
O1637     Co1640   2.016       .  S
Co1638     O1642   2.031       .  S
Co1639     O1642   2.056       .  S
Co1640     O1642   2.020       .  S
Co1641     O1642   1.978       .  S
C1643      C1751   1.490       .  S
C1644      C1916   1.458       .  S
C1645      C2000   1.491       .  S
C1646      C1762   1.478       .  S
O1647      C1655   1.279       .  A
O1647     Co1667   2.045       .  S
O1648      C1656   1.265       .  A
O1648     Co1668   2.046       .  S
O1649      C1657   1.261       .  A
O1649     Co1669   1.903       .  S
O1650      C1658   1.248       .  A
O1650     Co1670   1.932       .  S
O1651      C1657   1.296       .  A
O1651     Co1668   2.108       .  S
O1652      C1658   1.268       .  A
O1652     Co1667   2.031       .  S
O1653      C1656   1.246       .  A
O1653     Co1670   1.953       .  S
O1654      C1655   1.261       .  A
O1654     Co1669   1.962       .  S
C1655      C3749   1.473   1_455  S
C1656      C1748   1.496       .  S
C1657      C1849   1.473       .  S
C1658      C1790   1.472       .  S
O1659      C1672   1.261       .  A
O1659     Co1667   1.963       .  S
O1660      C1673   1.266       .  A
O1660     Co1668   1.897       .  S
O1661      C1674   1.257       .  A
O1661     Co1669   2.015       .  S
O1662      C1675   1.275       .  A
O1662     Co1670   2.022       .  S
O1663      C1675   1.262       .  A
O1663     Co1668   1.969       .  S
O1664      C1674   1.249       .  A
O1664     Co1667   1.959       .  S
O1665      C1672   1.277       .  A
O1665     Co1670   2.047       .  S
O1666      C1673   1.293       .  A
O1666     Co1669   2.081       .  S
Co1667     O1671   2.045       .  S
Co1668     O1671   2.033       .  S
Co1669     O1671   2.028       .  S
Co1670     O1671   2.022       .  S
C1672      C1734   1.503       .  S
C1673      C1807   1.463       .  S
C1674      C1860   1.478       .  S
C1675      C1720   1.469       .  S
O1676      C1684   1.257       .  A
O1676     Co1696   1.962       .  S
O1677      C1685   1.269       .  A
O1677     Co1697   1.967       .  S
O1678      C1686   1.287       .  A
O1678     Co1698   2.085       .  S
O1679      C1687   1.272       .  A
O1679     Co1699   2.059   1_545  S
O1680      C1686   1.266       .  A
O1680     Co1697   1.904       .  S
O1681      C1687   1.247   1_565  A
O1681     Co1696   1.942       .  S
O1682      C1685   1.275       .  A
O1682     Co1699   2.013       .  S
O1683      C1684   1.269       .  A
O1683     Co1698   2.034       .  S
C1684      C1835   1.494       .  S
C1685      C1877   1.470       .  S
C1686      C2017   1.476       .  S
O1688      C1701   1.283       .  A
O1688     Co1696   2.054       .  S
O1689      C1702   1.297       .  A
O1689     Co1697   2.102       .  S
O1690      C1703   1.271       .  A
O1690     Co1698   1.980       .  S
O1691      C1704   1.263       .  A
O1691     Co1699   1.985       .  S
O1692      C1704   1.266       .  A
O1692     Co1697   2.012       .  S
O1693      C1703   1.272       .  A
O1693     Co1696   1.986       .  S
O1694      C1701   1.264       .  A
O1694     Co1699   1.964       .  S
O1695      C1702   1.271       .  A
O1695     Co1698   1.887       .  S
Co1696     O1700   1.993       .  S
Co1697     O1700   1.996       .  S
Co1698     O1700   2.027       .  S
Co1699     O1700   2.057       .  S
C1701      C1891   1.484       .  S
C1702      C1723   1.470       .  S
C1703      C2028   1.479       .  S
C1704      C1821   1.500       .  S
C1705      C1706   1.414       .  A
C1705      C1710   1.404       .  A
C1705      H1712   1.083       .  S
C1706      C1707   1.411       .  A
C1707      C1708   1.407       .  A
C1707      N1714   1.430       .  S
C1708      C1709   1.406       .  A
C1708      H1713   1.084       .  S
C1709      C3695   1.473       .  S
C1709      C1710   1.407       .  A
C1710      N3751   1.440       .  S
N1711      C3750   1.440   1_455  S
N1711      O1715   1.261       .  A
N1711      O1716   1.261       .  A
N1714      O1717   1.260       .  A
N1714      O1718   1.262       .  A
C1719      C1720   1.401       .  A
C1719      C1724   1.394       .  A
C1719      H1726   1.084       .  S
C1720      C1721   1.420       .  A
C1721      C1722   1.413       .  A
C1721      N1728   1.446       .  S
C1722      C1723   1.403       .  A
C1722      H1727   1.083       .  S
C1723      C1724   1.405       .  A
C1724      N1725   1.431       .  S
N1725      O1729   1.262       .  A
N1725      O1730   1.262       .  A
N1728      O1731   1.261       .  A
N1728      O1732   1.263       .  A
C1733      C1734   1.410       .  A
C1733      C1738   1.408       .  A
C1733      H1740   1.083       .  S
C1734      C1735   1.416       .  A
C1735      C1736   1.411       .  A
C1735      N1742   1.437       .  S
C1736      C1737   1.409       .  A
C1736      H1741   1.084       .  S
C1737      C1738   1.410       .  A
C1738      N1739   1.431       .  S
N1739      O1743   1.262       .  A
N1739      O1744   1.263       .  A
N1742      O1745   1.263       .  A
N1742      O1746   1.262       .  A
C1747      C1748   1.410       .  A
C1747      H1754   1.083       .  S
C1748      C1749   1.418       .  A
C1749      N1756   1.432       .  S
C1750      C1751   1.398       .  A
C1750      H1755   1.082       .  S
C1751      C1752   1.421       .  A
C1752      N1753   1.440       .  S
N1753      O1757   1.263       .  A
N1753      O1758   1.263       .  A
N1756      O1759   1.262       .  A
N1756      O1760   1.262       .  A
C1761      C1766   1.405       .  A
C1761      H1768   1.084       .  S
C1763      C1764   1.403   1_546  A
C1763      N1770   1.435       .  S
C1764      H1769   1.084       .  S
C1766      N1767   1.444       .  S
N1767      O1771   1.263       .  A
N1767      O1772   1.261       .  A
N1770      O1774   1.263   1_545  A
C1775      C1776   1.407       .  A
C1776      C1777   1.409       .  A
C1777      C1778   1.385       .  A
C1777      N1784   1.440       .  S
C1778      H1783   1.083       .  S
C1779      C1780   1.414       .  A
C1780      N1781   1.434       .  S
N1781      O1785   1.262       .  A
N1781      O1786   1.262       .  A
N1784      O1787   1.261       .  A
N1784      O1788   1.263       .  A
C1789      C1790   1.410       .  A
C1789      C1794   1.403       .  A
C1789      H1796   1.084       .  S
C1790      C1791   1.402       .  A
C1791      C1792   1.398       .  A
C1791      N1798   1.434       .  S
C1792      C1793   1.413       .  A
C1792      H1797   1.083       .  S
C1793      C1794   1.411       .  A
C1794      N1795   1.440       .  S
N1795      O1799   1.263       .  A
N1795      O1800   1.263       .  A
N1798      O1801   1.262       .  A
N1798      O1802   1.262       .  A
C1803      C1804   1.403       .  A
C1803      C1808   1.407       .  A
C1803      H1810   1.084       .  S
C1804      C1805   1.412       .  A
C1805      C1806   1.394       .  A
C1805      N1812   1.433       .  S
C1806      C1807   1.397       .  A
C1806      H1811   1.084       .  S
C1807      C1808   1.414       .  A
C1808      N1809   1.438       .  S
N1809      O1813   1.263       .  A
N1809      O1814   1.262       .  A
N1812      O1815   1.262       .  A
N1812      O1816   1.262       .  A
C1817      C1818   1.410       .  A
C1817      C1822   1.401       .  A
C1817      H1824   1.083       .  S
C1818      C1819   1.418       .  A
C1819      C1820   1.414       .  A
C1819      N1826   1.433       .  S
C1820      C1821   1.411       .  A
C1820      H1825   1.083       .  S
C1821      C1822   1.415       .  A
C1822      N1823   1.435       .  S
N1823      O1827   1.263       .  A
N1823      O1828   1.263       .  A
N1826      O1829   1.262       .  A
N1826      O1830   1.262       .  A
C1831      C1832   1.408       .  A
C1831      C1836   1.407       .  A
C1831      H1838   1.083       .  S
C1832      C3637   1.486       .  S
C1832      C1833   1.403       .  A
C1833      C1834   1.399       .  A
C1833      N3880   1.425       .  S
C1834      C1835   1.412       .  A
C1834      H1839   1.084       .  S
C1835      C1836   1.416       .  A
C1836      N1837   1.433       .  S
N1837      O1841   1.262       .  A
N1837      O1842   1.262       .  A
N1840      C3873   1.425   1_455  S
N1840      O1843   1.261       .  A
N1840      O1844   1.261       .  A
C1845      C3886   1.401   1_554  A
C1845      H1852   1.084   1_554  S
C1846      C3885   1.401   1_556  A
C1846      C3887   1.414       .  A
C1847      C3886   1.414       .  A
C1847      N3894   1.440       .  S
C1848      C1849   1.403       .  A
C1848      H1853   1.083       .  S
C1849      C1850   1.413       .  A
C1850      N1851   1.436       .  S
N1851      O1855   1.263   1_455  A
N1851      O1856   1.261       .  A
N1854      C3887   1.440       .  S
N1854      O1857   1.261       .  A
N1854      O3898   1.263       .  A
O1858      N3894   1.263   1_455  A
C1859      C1860   1.402       .  A
C1859      C3904   1.413   1_455  A
C1859      H1866   1.084       .  S
C1860      C1861   1.412       .  A
C1861      C1862   1.392       .  A
C1861      N1868   1.431       .  S
C1862      C3903   1.401   1_455  A
C1862      H1867   1.085       .  S
C1863      C3902   1.401       .  A
C1863      C1864   1.422       .  A
C1864      C3899   1.413       .  A
C1864      N1865   1.436       .  S
N1865      O1869   1.263       .  A
N1865      O1870   1.261       .  A
N1868      O1871   1.261       .  A
N1868      O1872   1.262       .  A
C1873      C1878   1.402   1_556  A
C1873      H1880   1.084       .  S
C1875      C1876   1.401       .  A
C1875      N1882   1.436       .  S
C1876      H1881   1.083       .  S
C1878      N1879   1.440   1_554  S
N1879      O1883   1.263       .  A
N1879      O1884   1.262   1_556  A
N1882      O1885   1.262       .  A
N1882      O1886   1.263       .  A
C1887      C1888   1.400       .  A
C1887      H1894   1.083       .  S
C1888      C1889   1.419       .  A
C1889      C1890   1.405       .  A
C1889      N1896   1.440       .  S
C1890      H1895   1.082       .  S
C1891      C1892   1.412       .  A
C1892      N1893   1.433       .  S
N1893      O1897   1.262       .  A
N1893      O1898   1.262       .  A
N1896      O1899   1.259       .  A
N1896      O1900   1.263       .  A
C1901      C1902   1.401       .  A
C1901      C1906   1.402       .  A
C1901      H1908   1.084       .  S
C1902      C1903   1.415       .  A
C1903      C1904   1.391       .  A
C1903      N1910   1.441       .  S
C1904      C1905   1.404       .  A
C1904      H1909   1.081       .  S
C1905      C1906   1.414       .  A
C1906      N1907   1.442       .  S
N1907      O1911   1.263       .  A
N1907      O1912   1.260       .  A
N1910      O3953   1.260   1_455  A
N1910      O1914   1.263       .  A
O1913      N3950   1.260       .  A
C1915      C1916   1.400       .  A
C1915      C1920   1.400       .  A
C1915      H1922   1.084       .  S
C1916      C1917   1.411       .  A
C1917      C1918   1.395       .  A
C1917      N1924   1.435       .  S
C1918      C1919   1.398       .  A
C1918      H1923   1.085       .  S
C1919      C1920   1.412       .  A
C1920      N1921   1.436       .  S
N1921      O1925   1.263       .  A
N1921      O1926   1.261       .  A
N1924      O1927   1.261       .  A
N1924      O1928   1.263       .  A
C1929      C1934   1.404   1_554  A
C1929      H1936   1.085       .  S
C1930      C3971   1.414   1_455  A
C1931      C3970   1.414       .  A
C1931      C1932   1.413       .  A
C1931      N1938   1.439       .  S
C1932      H1937   1.083       .  S
C1933      C3974   1.411       .  A
C1934      C3973   1.411   1_455  A
C1934      N1935   1.433       .  S
N1935      O1939   1.262       .  A
N1935      O1940   1.262       .  A
N1938      O3981   1.263       .  A
N1938      O1942   1.262       .  A
O1941      N3978   1.263       .  A
C1943      C3984   1.412       .  A
C1943      C1948   1.417   1_655  A
C1943      H1950   1.083       .  S
C1944      C3983   1.412       .  A
C1944      C1945   1.407       .  A
C1945      C3986   1.397       .  A
C1945      N1952   1.427       .  S
C1946      C3985   1.397       .  A
C1946      C1947   1.403   1_655  A
C1946      H1951   1.085       .  S
C1947      C1948   1.416       .  A
C1948      N1949   1.442       .  S
N1949      O1953   1.263       .  A
N1949      O1954   1.262       .  A
N1952      O1955   1.261       .  A
N1952      O1956   1.262       .  A
C1957      C1958   1.412       .  A
C1957      C1962   1.415       .  A
C1957      H1964   1.083       .  S
C1958      C1959   1.427       .  A
C1959      C1960   1.406       .  A
C1959      N1966   1.436       .  S
C1960      C1961   1.402       .  A
C1960      H1965   1.083       .  S
C1961      C1962   1.417       .  A
N1963      O1967   1.262       .  A
N1963      O1968   1.263       .  A
N1966      O1969   1.263       .  A
N1966      O1970   1.262       .  A
C1971      C1972   1.404       .  A
C1971      C1976   1.412       .  A
C1971      H1978   1.081       .  S
C1972      C1973   1.407       .  A
C1973      C1974   1.396       .  A
C1973      N1980   1.442       .  S
C1974      C1975   1.410       .  A
C1974      H1979   1.083       .  S
C1975      C1976   1.418       .  A
C1976      N1977   1.435       .  S
N1977      O1981   1.263       .  A
N1977      O1982   1.262       .  A
N1980      O1983   1.262       .  A
N1980      O4024   1.262       .  A
O1984      N4020   1.262       .  A
C1985      C1986   1.409       .  A
C1985      C1990   1.394       .  A
C1985      H1992   1.083       .  S
C1986      C3582   1.494       .  S
C1986      C1987   1.415       .  A
C1987      C1988   1.413       .  A
C1987      N1994   1.434       .  S
C1988      C1989   1.409       .  A
C1988      H1993   1.076       .  S
C1989      C1990   1.405       .  A
N1991      O1995   1.261       .  A
N1991      O1996   1.262       .  A
N1994      O1997   1.262       .  A
N1994      O1998   1.262       .  A
C1999      C2000   1.403       .  A
C1999      C2004   1.401       .  A
C1999      H2006   1.084       .  S
C2000      C2001   1.418       .  A
C2001      C2002   1.404       .  A
C2001      N2008   1.433       .  S
C2002      C2003   1.404       .  A
C2002      H2007   1.084       .  S
C2003      C2004   1.421       .  A
C2004      N2005   1.433       .  S
N2005      O2009   1.263       .  A
N2005      O2010   1.260       .  A
N2008      O2011   1.262       .  A
N2008      O2012   1.262       .  A
C2013      C2014   1.405       .  A
C2013      H2020   1.084   1_556  S
C2014      C2015   1.416       .  A
C2015      C2016   1.400       .  A
C2015      N2022   1.425       .  S
C2016      H2021   1.082       .  S
C2017      C2018   1.412       .  A
C2018      N2019   1.429       .  S
N2019      O2023   1.262       .  A
N2019      O2024   1.261       .  A
N2022      O2025   1.262       .  A
N2022      O2026   1.262       .  A
C2027      C2028   1.398       .  A
C2027      C2032   1.384       .  A
C2027      H2034   1.085       .  S
C2028      C2029   1.412       .  A
C2029      C2030   1.409       .  A
C2029      N2036   1.431       .  S
C2030      C2031   1.410       .  A
C2030      H2035   1.083       .  S
C2031      C2032   1.422       .  A
C2032      N2033   1.437       .  S
N2033      O2037   1.263       .  A
N2033      O2038   1.259       .  A
N2036      O2039   1.261       .  A
N2036      O2040   1.262       .  A
O2041      C2049   1.263       .  A
O2041     Co2061   1.976       .  S
O2042      C2050   1.269       .  A
O2042     Co2062   1.960       .  S
O2043      C2051   1.311       .  A
O2043     Co2063   2.133       .  S
O2044      C2052   1.264       .  A
O2044     Co2064   2.054   1_455  S
O2045      C2051   1.281       .  A
O2045     Co2062   1.875       .  S
O2046      C2052   1.243   1_655  A
O2046     Co2061   1.933       .  S
O2047      C2050   1.278       .  A
O2047     Co2064   2.042       .  S
O2048      C2049   1.264       .  A
O2048     Co2063   2.021       .  S
C2049      C2468   1.509       .  S
C2050      C2443   1.490       .  S
C2051      C2524   1.489       .  S
O2053      C2066   1.285       .  A
O2053     Co2061   2.065       .  S
O2054      C2067   1.246       .  A
O2054     Co2062   2.023       .  S
O2055      C2068   1.262       .  A
O2055     Co2063   1.979       .  S
O2056      C2069   1.257       .  A
O2056     Co2064   1.950       .  S
O2057      C2069   1.274       .  A
O2057     Co2062   2.052       .  S
O2058      C2068   1.258       .  A
O2058     Co2061   1.980       .  S
O2059      C2066   1.261       .  A
O2059     Co2064   1.949       .  S
O2060      C2067   1.242       .  A
O2060     Co2063   1.969       .  S
Co2061     O2065   2.057       .  S
Co2062     O2065   2.032       .  S
Co2063     O2065   2.115       .  S
Co2064     O2065   2.091       .  S
C2066      C2454   1.492       .  S
C2067      C2513   1.492       .  S
C2068      C2541   1.486       .  S
C2069      C2485   1.493       .  S
O2070      C2078   1.269       .  A
O2070     Co2090   1.887       .  S
O2071      C2079   1.245       .  A
O2071     Co2091   1.983       .  S
O2072      C2080   1.268       .  A
O2073      C2081   1.272       .  A
O2073     Co2093   2.029       .  S
O2074     Co2091   1.963       .  S
O2075      C2081   1.262       .  A
O2075     Co2090   1.975       .  S
O2076      C2079   1.253       .  A
O2076     Co2093   2.009       .  S
O2077      C2078   1.303       .  A
O2077     Co2092   2.092       .  S
C2078      C2373   1.485       .  S
C2079      C3491   1.500   1_545  S
C2080      C2412   1.461       .  S
C2081      C2398   1.478       .  S
O2082      C2095   1.270       .  A
O2082     Co2090   2.000       .  S
O2083      C2096   1.264       .  A
O2083     Co2091   1.980       .  S
O2084      C2097   1.249       .  A
O2084     Co2092   1.981       .  S
O2085      C2098   1.302       .  A
O2085     Co2093   2.073       .  S
O2086      C2098   1.273       .  A
O2086     Co2091   1.888       .  S
O2087      C2097   1.249       .  A
O2087     Co2090   1.979       .  S
O2088      C2095   1.265       .  A
O2088     Co2093   1.972       .  S
O2089      C2096   1.267       .  A
O2089     Co2092   2.004       .  S
Co2090     O2094   1.932       .  S
Co2091     O2094   1.910       .  S
Co2092     O2094   2.135       .  S
Co2093     O2094   2.159       .  S
C2095      C2429   1.458       .  S
C2096      C2356   1.471       .  S
C2097      C2482   1.472       .  S
C2098      C2384   1.462       .  S
O2099      C2107   1.257       .  A
O2099     Co2119   2.021       .  S
O2100      C2108   1.255       .  A
O2100     Co2120   2.007       .  S
O2101      C2109   1.253       .  A
O2101     Co2121   1.969       .  S
O2102      C2110   1.245       .  A
O2102     Co2122   1.943       .  S
O2103      C2109   1.261       .  A
O2103     Co2120   1.991       .  S
O2104      C2110   1.273       .  A
O2104     Co2119   2.064       .  S
O2105      C2108   1.248       .  A
O2105     Co2122   1.970       .  S
O2106      C2107   1.254       .  A
O2106     Co2121   1.968       .  S
C2108      C2275   1.472       .  S
C2109      C3323   1.482       .  S
C2110      C2440   1.482       .  S
O2111      C2124   1.258       .  A
O2111     Co2119   1.955       .  S
O2112      C2125   1.251       .  A
O2112     Co2120   1.947       .  S
O2113      C2126   1.280       .  A
O2113     Co2121   2.035       .  S
O2114      C2127   1.276       .  A
O2114     Co2122   2.059       .  S
O2115      C2127   1.254       .  A
O2115     Co2120   1.944       .  S
O2116      C2126   1.267       .  A
O2116     Co2119   1.941       .  S
O2117      C2124   1.271       .  A
O2117     Co2122   2.023       .  S
O2118      C2125   1.254       .  A
O2118     Co2121   1.982       .  S
Co2119     O2123   2.053       .  S
Co2120     O2123   2.114       .  S
Co2121     O2123   2.163       .  S
Co2122     O2123   2.089       .  S
C2124      C2314   1.469       .  S
C2125      C2289   1.486       .  S
C2126      C2457   1.479       .  S
C2127      C2328   1.503       .  S
O2128      C2136   1.270       .  A
O2128     Co2148   2.040       .  S
O2129      C2137   1.275       .  A
O2129     Co2149   2.016       .  S
O2130      C2138   1.257       .  A
O2130     Co2150   1.949       .  S
O2131      C2139   1.258       .  A
O2131     Co2151   1.858       .  S
O2132      C2138   1.272       .  A
O2132     Co2149   2.032       .  S
O2133      C2139   1.300       .  A
O2133     Co2148   2.124       .  S
O2134      C2137   1.277       .  A
O2134     Co2151   1.989       .  S
O2135      C2136   1.256       .  A
O2135     Co2150   1.967       .  S
C2136      C2247   1.495       .  S
C2137      C3519   1.488   1_545  S
C2138      C2286   1.472       .  S
C2139      C2415   1.478       .  S
O2140      C2153   1.270       .  A
O2140     Co2148   1.909       .  S
O2141      C2154   1.259       .  A
O2141     Co2149   1.952       .  S
O2142      C2155   1.276       .  A
O2142     Co2150   2.025       .  S
O2143      C2156   1.256       .  A
O2143     Co2151   1.980       .  S
O2144      C2156   1.259       .  A
O2144     Co2149   1.984       .  S
O2145      C2155   1.269       .  A
O2145     Co2148   1.968       .  S
O2146      C2153   1.298       .  A
O2146     Co2151   2.103       .  S
O2147      C2154   1.269       .  A
O2147     Co2150   2.016       .  S
Co2148     O2152   2.031       .  S
Co2149     O2152   2.056       .  S
Co2150     O2152   2.020       .  S
Co2151     O2152   1.978       .  S
C2153      C2261   1.490       .  S
C2154      C2426   1.458       .  S
C2155      C2510   1.491       .  S
C2156      C2272   1.478       .  S
O2157      C2165   1.279       .  A
O2157     Co2177   2.045       .  S
O2158      C2166   1.265       .  A
O2158     Co2178   2.046       .  S
O2159      C2167   1.261       .  A
O2159     Co2179   1.903       .  S
O2160      C2168   1.248       .  A
O2160     Co2180   1.932       .  S
O2161      C2167   1.296       .  A
O2161     Co2178   2.108       .  S
O2162      C2168   1.268       .  A
O2162     Co2177   2.031       .  S
O2163      C2166   1.246       .  A
O2163     Co2180   1.953       .  S
O2164      C2165   1.261       .  A
O2164     Co2179   1.962       .  S
C2166      C2258   1.496       .  S
C2167      C2359   1.473       .  S
C2168      C2300   1.472       .  S
O2169      C2182   1.261       .  A
O2169     Co2177   1.963       .  S
O2170      C2183   1.266       .  A
O2170     Co2178   1.897       .  S
O2171      C2184   1.257       .  A
O2171     Co2179   2.015       .  S
O2172      C2185   1.275       .  A
O2172     Co2180   2.022       .  S
O2173      C2185   1.262       .  A
O2173     Co2178   1.969       .  S
O2174      C2184   1.249       .  A
O2174     Co2177   1.959       .  S
O2175      C2182   1.277       .  A
O2175     Co2180   2.047       .  S
O2176      C2183   1.293       .  A
O2176     Co2179   2.081       .  S
Co2177     O2181   2.045       .  S
Co2178     O2181   2.033       .  S
Co2179     O2181   2.028       .  S
Co2180     O2181   2.022       .  S
C2182      C2244   1.503       .  S
C2183      C2317   1.463       .  S
C2184      C2370   1.478       .  S
C2185      C2230   1.469       .  S
O2186      C2194   1.257       .  A
O2186     Co2206   1.962       .  S
O2187      C2195   1.269       .  A
O2187     Co2207   1.967       .  S
O2188      C2196   1.287       .  A
O2188     Co2208   2.085       .  S
O2189      C2197   1.272       .  A
O2189     Co2209   2.059       .  S
O2190      C2196   1.266       .  A
O2190     Co2207   1.904       .  S
O2191      C2197   1.247       .  A
O2191     Co2206   1.942       .  S
O2192      C2195   1.275       .  A
O2192     Co2209   2.013       .  S
O2193      C2194   1.269       .  A
O2193     Co2208   2.034       .  S
C2194      C2345   1.494       .  S
C2195      C2387   1.470       .  S
C2196      C2527   1.476       .  S
C2197      C3236   1.495       .  S
O2198      C2211   1.283       .  A
O2198     Co2206   2.054       .  S
O2199      C2212   1.297       .  A
O2199     Co2207   2.102       .  S
O2200      C2213   1.271       .  A
O2200     Co2208   1.980       .  S
O2201      C2214   1.263       .  A
O2201     Co2209   1.985       .  S
O2202      C2214   1.266       .  A
O2202     Co2207   2.012       .  S
O2203      C2213   1.272       .  A
O2203     Co2206   1.986       .  S
O2204      C2211   1.264       .  A
O2204     Co2209   1.964       .  S
O2205      C2212   1.271       .  A
O2205     Co2208   1.887       .  S
Co2206     O2210   1.993       .  S
Co2207     O2210   1.996       .  S
Co2208     O2210   2.027       .  S
Co2209     O2210   2.057       .  S
C2211      C2401   1.484       .  S
C2212      C2233   1.470       .  S
C2213      C2538   1.479       .  S
C2214      C2331   1.500       .  S
C2215      C2216   1.414       .  A
C2215      C2220   1.404       .  A
C2215      H2222   1.083       .  S
C2216      C3217   1.495       .  S
C2216      C2217   1.411       .  A
C2217      C2218   1.407       .  A
C2217      N2224   1.430       .  S
C2218      C2219   1.406       .  A
C2218      H2223   1.084       .  S
C2219      C2220   1.407       .  A
N2221      O2225   1.261       .  A
N2221      O2226   1.261       .  A
N2224      O2227   1.260       .  A
N2224      O2228   1.262       .  A
C2229      C2230   1.401       .  A
C2229      C2234   1.394       .  A
C2229      H2236   1.084       .  S
C2230      C2231   1.420       .  A
C2231      C2232   1.413       .  A
C2231      N2238   1.446       .  S
C2232      C2233   1.403       .  A
C2232      H2237   1.083       .  S
C2233      C2234   1.405       .  A
C2234      N2235   1.431       .  S
N2235      O2239   1.262       .  A
N2235      O2240   1.262       .  A
N2238      O2241   1.261       .  A
N2238      O2242   1.263       .  A
C2243      C2244   1.410       .  A
C2243      C2248   1.408       .  A
C2243      H2250   1.083       .  S
C2244      C2245   1.416       .  A
C2245      C2246   1.411       .  A
C2245      N2252   1.437       .  S
C2246      C2247   1.409       .  A
C2246      H2251   1.084       .  S
C2247      C2248   1.410       .  A
C2248      N2249   1.431       .  S
N2249      O2253   1.262       .  A
N2249      O2254   1.263       .  A
N2252      O2255   1.263       .  A
N2252      O2256   1.262       .  A
C2257      C2258   1.410       .  A
C2257      C2772   1.422   1_554  A
C2257      H2264   1.083       .  S
C2258      C2259   1.418       .  A
C2259      C2770   1.390   1_554  A
C2259      N2266   1.432       .  S
C2260      C2769   1.390       .  A
C2260      C2261   1.398       .  A
C2260      H2265   1.082       .  S
C2261      C2262   1.421       .  A
C2262      C2767   1.422       .  A
C2262      N2263   1.440       .  S
N2263      O2267   1.263       .  A
N2263      O2268   1.263       .  A
N2266      O2269   1.262       .  A
N2266      O2270   1.262       .  A
C2271      C2782   1.404   1_554  A
C2271      C2276   1.405       .  A
C2271      H2278   1.084       .  S
C2272      C2781   1.404       .  A
C2272      C3293   1.414       .  A
C2273      C3292   1.414       .  A
C2273      C2274   1.403       .  A
C2273      N2280   1.435       .  S
C2274      C2785   1.402       .  A
C2274      H2279   1.084       .  S
C2275      C2784   1.402       .  A
C2275      C3296   1.418       .  A
C2276      C3295   1.418   1_545  A
C2276      N2277   1.444       .  S
N2277      O2281   1.263       .  A
N2277      O2282   1.261   1_545  A
N2280      O3303   1.262       .  A
N2280      O2284   1.263       .  A
O2283      N3300   1.262       .  A
C2285      C2286   1.407   1_565  A
C2285      C3310   1.413       .  A
C2285      H3312   1.076       .  S
C2286      C2287   1.409       .  A
C2287      C2288   1.385       .  A
C2287      N2294   1.440       .  S
C2288      C3309   1.409   1_545  A
C2288      H2293   1.083       .  S
C2289      C3308   1.409       .  A
C2289      C2290   1.414       .  A
C2290      C3305   1.413       .  A
C2290      N2291   1.434       .  S
N2291      O2295   1.262       .  A
N2291      O2296   1.262       .  A
H2292      C3305   1.076       .  S
N2294      O2297   1.261       .  A
N2294      O2298   1.263       .  A
C2299      C2300   1.410       .  A
C2299      C2304   1.403       .  A
C2299      H2306   1.084       .  S
C2300      C2301   1.402       .  A
C2301      C2302   1.398       .  A
C2301      N2308   1.434       .  S
C2302      C2303   1.413       .  A
C2302      H2307   1.083       .  S
C2303      C3129   1.482   1_545  S
C2303      C2304   1.411       .  A
C2304      N2305   1.440       .  S
N2305      O2309   1.263       .  A
N2305      O2310   1.263       .  A
N2308      O2311   1.262       .  A
N2308      O2312   1.262       .  A
C2313      C2314   1.403       .  A
C2313      C2318   1.407       .  A
C2313      H2320   1.084       .  S
C2314      C2315   1.412       .  A
C2315      C2316   1.394       .  A
C2315      N2322   1.433       .  S
C2316      C2317   1.397       .  A
C2316      H2321   1.084       .  S
C2317      C2318   1.414       .  A
C2318      N2319   1.438       .  S
N2319      O2323   1.263       .  A
N2319      O2324   1.262       .  A
N2322      O2325   1.262       .  A
N2322      O2326   1.262       .  A
C2327      C2328   1.410       .  A
C2327      C2332   1.401       .  A
C2327      H2334   1.083       .  S
C2328      C2329   1.418       .  A
C2329      C2330   1.414       .  A
C2329      N2336   1.433       .  S
C2330      C2331   1.411       .  A
C2330      H2335   1.083       .  S
C2331      C2332   1.415       .  A
C2332      N2333   1.435       .  S
N2333      O2337   1.263       .  A
N2333      O2338   1.263       .  A
N2336      O2339   1.262       .  A
N2336      O2340   1.262       .  A
C2341      C2342   1.408       .  A
C2341      C2346   1.407       .  A
C2341      H2348   1.083       .  S
C2342      C2343   1.403       .  A
C2343      C2344   1.399       .  A
C2344      C2345   1.412       .  A
C2344      H2349   1.084       .  S
C2345      C2346   1.416       .  A
C2346      N2347   1.433       .  S
N2347      O2351   1.262       .  A
N2347      O2352   1.262       .  A
N2350      O2353   1.261       .  A
N2350      O2354   1.261       .  A
C2355      C2870   1.401       .  A
C2355      H2362   1.084       .  S
C2357      C2868   1.408       .  A
C2358      C2867   1.408   1_554  A
C2358      C2359   1.403       .  A
C2358      H2363   1.083       .  S
C2359      C2360   1.413       .  A
C2360      C2865   1.401       .  A
C2360      N2361   1.436       .  S
N2361      O2365   1.263       .  A
N2361      O2366   1.261       .  A
N2364      O2367   1.261       .  A
C2369      C2370   1.402       .  A
C2369      H2376   1.084       .  S
C2370      C2371   1.412       .  A
C2371      C2372   1.392       .  A
C2371      N2378   1.431       .  S
C2372      H2377   1.085       .  S
C2373      C2374   1.422       .  A
C2374      N2375   1.436       .  S
N2375      O2379   1.263       .  A
N2375      O2380   1.261       .  A
N2378      O2381   1.261       .  A
N2378      O2382   1.262       .  A
C2383      C3404   1.399       .  A
C2383      C2388   1.402       .  A
C2383      H2390   1.084       .  S
C2384      C3403   1.399   1_545  A
C2384      C2895   1.409       .  A
C2385      C2894   1.409   1_554  A
C2385      C2386   1.401       .  A
C2385      N2392   1.436       .  S
C2386      C3407   1.403   1_545  A
C2386      H2391   1.083       .  S
C2387      C3406   1.403       .  A
C2387      C2898   1.415       .  A
C2388      C2897   1.415       .  A
C2388      N2389   1.440       .  S
N2389      O2393   1.263       .  A
N2389      O2394   1.262       .  A
N2392      O2395   1.262       .  A
N2392      O2396   1.263       .  A
C2397      C2398   1.400       .  A
C2397      C3422   1.408   1_545  A
C2397      H2404   1.083       .  S
C2398      C2399   1.419       .  A
C2399      C2400   1.405       .  A
C2399      N2406   1.440       .  S
C2400      C3421   1.399   1_545  A
C2400      H2405   1.082       .  S
C2401      C3420   1.399       .  A
C2401      C2402   1.412       .  A
C2402      C3417   1.408       .  A
C2402      N2403   1.433       .  S
N2403      O2407   1.262       .  A
N2403      O2408   1.262       .  A
N2406      O2409   1.259       .  A
N2406      O2410   1.263       .  A
C2411      C2412   1.401       .  A
C2411      C2416   1.402       .  A
C2411      H2418   1.084       .  S
C2412      C2413   1.415       .  A
C2413      C2414   1.391       .  A
C2413      N2420   1.441       .  S
C2414      C2415   1.404       .  A
C2414      H2419   1.081       .  S
C2415      C2416   1.414       .  A
C2416      N2417   1.442       .  S
N2417      O2421   1.263       .  A
N2417      O2422   1.260       .  A
N2420      O2424   1.263       .  A
C2425      C2426   1.400       .  A
C2425      C2430   1.400       .  A
C2425      H2432   1.084       .  S
C2426      C2427   1.411       .  A
C2427      C2428   1.395       .  A
C2427      N2434   1.435       .  S
C2428      C2429   1.398       .  A
C2428      H2433   1.085       .  S
C2429      C2430   1.412       .  A
C2430      N2431   1.436       .  S
N2431      O2435   1.263       .  A
N2431      O2436   1.261       .  A
N2434      O2437   1.261       .  A
N2434      O2438   1.263       .  A
C2439      C2950   1.408       .  A
C2439      C2444   1.404       .  A
C2439      H2446   1.085       .  S
C2440      C2949   1.408       .  A
C2441      C2442   1.413   1_554  A
C2441      N2448   1.439       .  S
C2442      C2953   1.408       .  A
C2442      H2447   1.083       .  S
C2443      C2952   1.408       .  A
C2444      N2445   1.433       .  S
N2445      O2449   1.262       .  A
N2445      O2450   1.262       .  A
N2448      O2452   1.262       .  A
C2453      C2458   1.417       .  A
C2453      H2460   1.083       .  S
C2454      C2455   1.407       .  A
C2455      N2462   1.427       .  S
C2456      C2457   1.403       .  A
C2456      H2461   1.085       .  S
C2457      C2458   1.416       .  A
C2458      N2459   1.442       .  S
N2459      O2463   1.263       .  A
N2459      O2464   1.262       .  A
N2462      O2465   1.261       .  A
N2462      O2466   1.262       .  A
C2467      C2468   1.412       .  A
C2467      C2472   1.415       .  A
C2467      H2474   1.083       .  S
C2468      C2469   1.427       .  A
C2469      C2470   1.406       .  A
C2469      N2476   1.436       .  S
C2470      C2471   1.402       .  A
C2470      H2475   1.083       .  S
C2471      C3099   1.500       .  S
C2471      C2472   1.417       .  A
C2472      N3493   1.442       .  S
N2473      C3492   1.442   1_545  S
N2473      O2477   1.262       .  A
N2473      O2478   1.263       .  A
N2476      O2479   1.263       .  A
N2476      O2480   1.262       .  A
C2481      C2482   1.404       .  A
C2481      C2486   1.412       .  A
C2481      H2488   1.081       .  S
C2482      C2483   1.407       .  A
C2483      C2484   1.396       .  A
C2483      N2490   1.442       .  S
C2484      C2485   1.410       .  A
C2484      H2489   1.083       .  S
C2485      C2486   1.418       .  A
C2486      N2487   1.435       .  S
N2487      O2491   1.263       .  A
N2487      O2492   1.262       .  A
N2490      O2493   1.262       .  A
C2495      C2496   1.409       .  A
C2495      C2500   1.394       .  A
C2495      H2502   1.083       .  S
C2496      C2497   1.415       .  A
C2497      C2498   1.413       .  A
C2497      N2504   1.434       .  S
C2498      C2499   1.409       .  A
C2498      H2503   1.076       .  S
C2499      C3157   1.488       .  S
C2499      C2500   1.405       .  A
C2500      N3521   1.429       .  S
N2501      C3520   1.429   1_545  S
N2501      O2505   1.261       .  A
N2501      O2506   1.262       .  A
N2504      O2507   1.262       .  A
N2504      O2508   1.262       .  A
C2509      C2510   1.403       .  A
C2509      C2514   1.401       .  A
C2509      H2516   1.084       .  S
C2510      C2511   1.418       .  A
C2511      C2512   1.404       .  A
C2511      N2518   1.433       .  S
C2512      C2513   1.404       .  A
C2512      H2517   1.084       .  S
C2513      C2514   1.421       .  A
C2514      N2515   1.433       .  S
N2515      O2519   1.263       .  A
N2515      O2520   1.260       .  A
N2518      O2521   1.262       .  A
N2518      O2522   1.262       .  A
C2523      C2524   1.405       .  A
C2523      C3038   1.402       .  A
C2523      H2530   1.084       .  S
C2524      C2525   1.416       .  A
C2525      C2526   1.400       .  A
C2525      N2532   1.425       .  S
C2526      C3037   1.393       .  A
C2526      H2531   1.082       .  S
C2527      C3036   1.393   1_554  A
C2527      C2528   1.412       .  A
C2528      C3033   1.402   1_554  A
C2528      N2529   1.429       .  S
N2529      O2533   1.262       .  A
N2529      O2534   1.261       .  A
N2532      O2535   1.262       .  A
N2532      O2536   1.262       .  A
C2537      C2538   1.398       .  A
C2537      C2542   1.384       .  A
C2537      H2544   1.085       .  S
C2538      C2539   1.412       .  A
C2539      C2540   1.409       .  A
C2539      N2546   1.431       .  S
C2540      C2541   1.410       .  A
C2540      H2545   1.083       .  S
C2541      C2542   1.422       .  A
C2542      N2543   1.437       .  S
N2543      O2547   1.263       .  A
N2543      O2548   1.259       .  A
N2546      O2549   1.261       .  A
N2546      O2550   1.262       .  A
O2551      C2559   1.263       .  A
O2551     Co2571   1.976       .  S
O2552      C2560   1.269       .  A
O2552     Co2572   1.960       .  S
O2553      C2561   1.311       .  A
O2553     Co2573   2.133       .  S
O2554      C2562   1.264       .  A
O2554     Co2574   2.054   1_455  S
O2555      C2561   1.281       .  A
O2555     Co2572   1.875       .  S
O2556      C2562   1.243   1_655  A
O2556     Co2571   1.933       .  S
O2557      C2560   1.278       .  A
O2557     Co2574   2.042       .  S
O2558      C2559   1.264       .  A
O2558     Co2573   2.021       .  S
C2559      C2978   1.509       .  S
C2560      C2953   1.490       .  S
C2561      C3034   1.489       .  S
O2563      C2576   1.285       .  A
O2563     Co2571   2.065       .  S
O2564      C2577   1.246       .  A
O2564     Co2572   2.023       .  S
O2565      C2578   1.262       .  A
O2565     Co2573   1.979       .  S
O2566      C2579   1.257       .  A
O2566     Co2574   1.950       .  S
O2567      C2579   1.274       .  A
O2567     Co2572   2.052       .  S
O2568      C2578   1.258       .  A
O2568     Co2571   1.980       .  S
O2569      C2576   1.261       .  A
O2569     Co2574   1.949       .  S
O2570      C2577   1.242       .  A
O2570     Co2573   1.969       .  S
Co2571     O2575   2.057       .  S
Co2572     O2575   2.032       .  S
Co2573     O2575   2.115       .  S
Co2574     O2575   2.091       .  S
C2576      C2964   1.492       .  S
C2577      C3023   1.492       .  S
C2578      C3051   1.486       .  S
C2579      C2995   1.493       .  S
O2580      C2588   1.269       .  A
O2580     Co2600   1.887       .  S
O2581      C2589   1.245       .  A
O2581     Co2601   1.983       .  S
O2582      C2590   1.268       .  A
O2583      C2591   1.272       .  A
O2583     Co2603   2.029       .  S
O2584     Co2601   1.963       .  S
O2585      C2591   1.262       .  A
O2585     Co2600   1.975       .  S
O2586      C2589   1.253       .  A
O2586     Co2603   2.009       .  S
O2587      C2588   1.303       .  A
O2587     Co2602   2.092       .  S
C2588      C2883   1.485       .  S
C2589      C4001   1.500   1_545  S
C2590      C2922   1.461       .  S
C2591      C2908   1.478       .  S
O2592      C2605   1.270       .  A
O2592     Co2600   2.000       .  S
O2593      C2606   1.264       .  A
O2593     Co2601   1.980       .  S
O2594      C2607   1.249       .  A
O2594     Co2602   1.981       .  S
O2595      C2608   1.302       .  A
O2595     Co2603   2.073       .  S
O2596      C2608   1.273       .  A
O2596     Co2601   1.888       .  S
O2597      C2607   1.249       .  A
O2597     Co2600   1.979       .  S
O2598      C2605   1.265       .  A
O2598     Co2603   1.972       .  S
O2599      C2606   1.267       .  A
O2599     Co2602   2.004       .  S
Co2600     O2604   1.932       .  S
Co2601     O2604   1.910       .  S
Co2602     O2604   2.135       .  S
Co2603     O2604   2.159       .  S
C2605      C2939   1.458       .  S
C2606      C2866   1.471       .  S
C2607      C2992   1.472       .  S
C2608      C2894   1.462       .  S
O2609      C2617   1.257       .  A
O2609     Co2629   2.021       .  S
O2610      C2618   1.255       .  A
O2610     Co2630   2.007       .  S
O2611      C2619   1.253       .  A
O2611     Co2631   1.969       .  S
O2612      C2620   1.245       .  A
O2612     Co2632   1.943       .  S
O2613      C2619   1.261       .  A
O2613     Co2630   1.991       .  S
O2614      C2620   1.273       .  A
O2614     Co2629   2.064       .  S
O2615      C2618   1.248       .  A
O2615     Co2632   1.970       .  S
O2616      C2617   1.254       .  A
O2616     Co2631   1.968       .  S
C2618      C2785   1.472       .  S
C2619      C3833   1.482       .  S
C2620      C2950   1.482       .  S
O2621      C2634   1.258       .  A
O2621     Co2629   1.955       .  S
O2622      C2635   1.251       .  A
O2622     Co2630   1.947       .  S
O2623      C2636   1.280       .  A
O2623     Co2631   2.035       .  S
O2624      C2637   1.276       .  A
O2624     Co2632   2.059       .  S
O2625      C2637   1.254       .  A
O2625     Co2630   1.944       .  S
O2626      C2636   1.267       .  A
O2626     Co2629   1.941       .  S
O2627      C2634   1.271       .  A
O2627     Co2632   2.023       .  S
O2628      C2635   1.254       .  A
O2628     Co2631   1.982       .  S
Co2629     O2633   2.053       .  S
Co2630     O2633   2.114       .  S
Co2631     O2633   2.163       .  S
Co2632     O2633   2.089       .  S
C2634      C2824   1.469       .  S
C2635      C2799   1.486       .  S
C2636      C2967   1.479       .  S
C2637      C2838   1.503       .  S
O2638      C2646   1.270       .  A
O2638     Co2658   2.040       .  S
O2639      C2647   1.275       .  A
O2639     Co2659   2.016       .  S
O2640      C2648   1.257       .  A
O2640     Co2660   1.949       .  S
O2641      C2649   1.258       .  A
O2641     Co2661   1.858       .  S
O2642      C2648   1.272       .  A
O2642     Co2659   2.032       .  S
O2643      C2649   1.300       .  A
O2643     Co2658   2.124       .  S
O2644      C2647   1.277       .  A
O2644     Co2661   1.989       .  S
O2645      C2646   1.256       .  A
O2645     Co2660   1.967       .  S
C2646      C2757   1.495       .  S
C2647      C4029   1.488   1_545  S
C2648      C2796   1.472       .  S
C2649      C2925   1.478       .  S
O2650      C2663   1.270       .  A
O2650     Co2658   1.909       .  S
O2651      C2664   1.259       .  A
O2651     Co2659   1.952       .  S
O2652      C2665   1.276       .  A
O2652     Co2660   2.025       .  S
O2653      C2666   1.256       .  A
O2653     Co2661   1.981       .  S
O2654      C2666   1.259       .  A
O2654     Co2659   1.983       .  S
O2655      C2665   1.269       .  A
O2655     Co2658   1.968       .  S
O2656      C2663   1.298       .  A
O2656     Co2661   2.103       .  S
O2657      C2664   1.269       .  A
O2657     Co2660   2.016       .  S
Co2658     O2662   2.031       .  S
Co2659     O2662   2.056       .  S
Co2660     O2662   2.020       .  S
Co2661     O2662   1.978       .  S
C2663      C2771   1.490       .  S
C2664      C2936   1.458       .  S
C2665      C3020   1.491       .  S
C2666      C2782   1.478       .  S
O2667      C2675   1.279       .  A
O2667     Co2687   2.045       .  S
O2668      C2676   1.265       .  A
O2668     Co2688   2.046       .  S
O2669      C2677   1.261       .  A
O2669     Co2689   1.903       .  S
O2670      C2678   1.248       .  A
O2670     Co2690   1.932       .  S
O2671      C2677   1.296       .  A
O2671     Co2688   2.108       .  S
O2672      C2678   1.268       .  A
O2672     Co2687   2.031       .  S
O2673      C2676   1.246       .  A
O2673     Co2690   1.953       .  S
O2674      C2675   1.261       .  A
O2674     Co2689   1.962       .  S
C2676      C2768   1.496       .  S
C2677      C2869   1.473       .  S
C2678      C2810   1.472       .  S
O2679      C2692   1.261       .  A
O2679     Co2687   1.963       .  S
O2680      C2693   1.266       .  A
O2680     Co2688   1.897       .  S
O2681      C2694   1.257       .  A
O2681     Co2689   2.015       .  S
O2682      C2695   1.275       .  A
O2682     Co2690   2.022       .  S
O2683      C2695   1.262       .  A
O2683     Co2688   1.969       .  S
O2684      C2694   1.249       .  A
O2684     Co2687   1.959       .  S
O2685      C2692   1.277       .  A
O2685     Co2690   2.047       .  S
O2686      C2693   1.293       .  A
O2686     Co2689   2.081       .  S
Co2687     O2691   2.045       .  S
Co2688     O2691   2.033       .  S
Co2689     O2691   2.028       .  S
Co2690     O2691   2.022       .  S
C2692      C2754   1.503       .  S
C2693      C2827   1.463       .  S
C2694      C2880   1.478       .  S
C2695      C2740   1.469       .  S
O2696      C2704   1.257       .  A
O2696     Co2716   1.962       .  S
O2697      C2705   1.269       .  A
O2697     Co2717   1.967       .  S
O2698      C2706   1.287       .  A
O2698     Co2718   2.085       .  S
O2699      C2707   1.272       .  A
O2699     Co2719   2.059       .  S
O2700      C2706   1.266       .  A
O2700     Co2717   1.904       .  S
O2701      C2707   1.247       .  A
O2701     Co2716   1.942       .  S
O2702      C2705   1.275       .  A
O2702     Co2719   2.013       .  S
O2703      C2704   1.269       .  A
O2703     Co2718   2.034       .  S
C2704      C2855   1.494       .  S
C2705      C2897   1.470       .  S
C2706      C3037   1.476       .  S
C2707      C3746   1.495       .  S
O2708      C2721   1.283       .  A
O2708     Co2716   2.054       .  S
O2709      C2722   1.297       .  A
O2709     Co2717   2.102       .  S
O2710      C2723   1.271       .  A
O2710     Co2718   1.980       .  S
O2711      C2724   1.263       .  A
O2711     Co2719   1.985       .  S
O2712      C2724   1.266       .  A
O2712     Co2717   2.012       .  S
O2713      C2723   1.272       .  A
O2713     Co2716   1.986       .  S
O2714      C2721   1.264       .  A
O2714     Co2719   1.964       .  S
O2715      C2722   1.271       .  A
O2715     Co2718   1.887       .  S
Co2716     O2720   1.993       .  S
Co2717     O2720   1.996       .  S
Co2718     O2720   2.027       .  S
Co2719     O2720   2.057       .  S
C2721      C2911   1.484       .  S
C2722      C2743   1.470       .  S
C2723      C3048   1.479       .  S
C2724      C2841   1.500       .  S
C2725      C2726   1.414       .  A
C2725      C2730   1.404       .  A
C2725      H2732   1.083       .  S
C2726      C3727   1.495       .  S
C2726      C2727   1.411       .  A
C2727      C2728   1.407       .  A
C2727      N2734   1.430       .  S
C2728      C2729   1.406       .  A
C2728      H2733   1.084       .  S
C2729      C2730   1.407       .  A
N2731      O2735   1.261       .  A
N2731      O2736   1.261       .  A
N2734      O2737   1.260       .  A
N2734      O2738   1.262       .  A
C2739      C2740   1.401       .  A
C2739      C2744   1.394       .  A
C2739      H2746   1.084       .  S
C2740      C2741   1.420       .  A
C2741      C2742   1.413       .  A
C2741      N2748   1.446       .  S
C2742      C2743   1.403       .  A
C2742      H2747   1.083       .  S
C2743      C2744   1.405       .  A
C2744      N2745   1.431       .  S
N2745      O2749   1.262       .  A
N2745      O2750   1.262       .  A
N2748      O2751   1.261       .  A
N2748      O2752   1.263       .  A
C2753      C2754   1.410       .  A
C2753      C2758   1.408       .  A
C2753      H2760   1.083       .  S
C2754      C2755   1.416       .  A
C2755      C2756   1.411       .  A
C2755      N2762   1.437       .  S
C2756      C2757   1.409       .  A
C2756      H2761   1.084       .  S
C2757      C2758   1.410       .  A
C2758      N2759   1.431       .  S
N2759      O2763   1.262       .  A
N2759      O2764   1.263       .  A
N2762      O2765   1.263       .  A
N2762      O2766   1.262       .  A
C2767      C2768   1.410       .  A
C2767      H2774   1.083       .  S
C2768      C2769   1.418       .  A
C2769      N2776   1.432       .  S
C2770      C2771   1.398       .  A
C2770      H2775   1.082       .  S
C2771      C2772   1.421       .  A
C2772      N2773   1.440       .  S
N2773      O2777   1.263       .  A
N2773      O2778   1.263       .  A
N2776      O2779   1.262       .  A
N2776      O2780   1.262       .  A
C2781      C2786   1.405       .  A
C2781      H2788   1.084       .  S
C2782      C3803   1.414       .  A
C2783      C3802   1.414       .  A
C2783      C2784   1.403   1_556  A
C2783      N2790   1.435       .  S
C2784      H2789   1.084       .  S
C2785      C3806   1.418       .  A
C2786      C3805   1.418   1_545  A
C2786      N2787   1.444       .  S
N2787      O2791   1.263       .  A
N2787      O2792   1.261   1_545  A
N2790      O3813   1.262       .  A
N2790      O2794   1.263       .  A
O2793      N3810   1.262       .  A
C2795      C2796   1.407   1_565  A
C2795      C3820   1.413       .  A
C2795      H3822   1.076       .  S
C2796      C2797   1.409       .  A
C2797      C2798   1.385       .  A
C2797      N2804   1.440       .  S
C2798      C3819   1.409   1_545  A
C2798      H2803   1.083       .  S
C2799      C3818   1.409       .  A
C2799      C2800   1.414       .  A
C2800      C3815   1.413       .  A
C2800      N2801   1.434       .  S
N2801      O2805   1.262       .  A
N2801      O2806   1.262       .  A
H2802      C3815   1.076       .  S
N2804      O2807   1.261       .  A
N2804      O2808   1.263       .  A
C2809      C2810   1.410       .  A
C2809      C2814   1.403       .  A
C2809      H2816   1.084       .  S
C2810      C2811   1.402       .  A
C2811      C2812   1.398       .  A
C2811      N2818   1.434       .  S
C2812      C2813   1.413       .  A
C2812      H2817   1.083       .  S
C2813      C3639   1.482   1_545  S
C2813      C2814   1.411       .  A
C2814      N2815   1.440       .  S
N2815      O2819   1.263       .  A
N2815      O2820   1.263       .  A
N2818      O2821   1.262       .  A
N2818      O2822   1.262       .  A
C2823      C2824   1.403       .  A
C2823      C2828   1.407       .  A
C2823      H2830   1.084       .  S
C2824      C2825   1.412       .  A
C2825      C2826   1.394       .  A
C2825      N2832   1.433       .  S
C2826      C2827   1.397       .  A
C2826      H2831   1.084       .  S
C2827      C2828   1.414       .  A
C2828      N2829   1.438       .  S
N2829      O2833   1.263       .  A
N2829      O2834   1.262       .  A
N2832      O2835   1.262       .  A
N2832      O2836   1.262       .  A
C2837      C2838   1.410       .  A
C2837      C2842   1.401       .  A
C2837      H2844   1.083       .  S
C2838      C2839   1.418       .  A
C2839      C2840   1.414       .  A
C2839      N2846   1.433       .  S
C2840      C2841   1.411       .  A
C2840      H2845   1.083       .  S
C2841      C2842   1.415       .  A
C2842      N2843   1.435       .  S
N2843      O2847   1.263       .  A
N2843      O2848   1.263       .  A
N2846      O2849   1.262       .  A
N2846      O2850   1.262       .  A
C2851      C2852   1.408       .  A
C2851      C2856   1.407       .  A
C2851      H2858   1.083       .  S
C2852      C2853   1.403       .  A
C2853      C2854   1.399       .  A
C2854      C2855   1.412       .  A
C2854      H2859   1.084       .  S
C2855      C2856   1.416       .  A
C2856      N2857   1.433       .  S
N2857      O2861   1.262       .  A
N2857      O2862   1.262       .  A
N2860      O2863   1.261       .  A
N2860      O2864   1.261       .  A
C2865      H2872   1.084   1_554  S
C2868      C2869   1.403       .  A
C2868      H2873   1.083       .  S
C2869      C2870   1.413       .  A
C2870      N2871   1.436       .  S
N2871      O2875   1.263       .  A
N2871      O2876   1.261       .  A
N2874      O2877   1.261       .  A
C2879      C2880   1.402       .  A
C2879      H2886   1.084       .  S
C2880      C2881   1.412       .  A
C2881      C2882   1.392       .  A
C2881      N2888   1.431       .  S
C2882      H2887   1.085       .  S
C2883      C2884   1.422       .  A
C2884      N2885   1.436       .  S
N2885      O2889   1.263       .  A
N2885      O2890   1.261       .  A
N2888      O2891   1.261       .  A
N2888      O2892   1.262       .  A
C2893      C3914   1.399       .  A
C2893      C2898   1.402   1_556  A
C2893      H2900   1.084       .  S
C2894      C3913   1.399   1_545  A
C2895      C2896   1.401       .  A
C2895      N2902   1.436       .  S
C2896      C3917   1.403   1_545  A
C2896      H2901   1.083       .  S
C2897      C3916   1.403       .  A
C2898      N2899   1.440   1_554  S
N2899      O2903   1.263       .  A
N2899      O2904   1.262   1_556  A
N2902      O2905   1.262       .  A
N2902      O2906   1.263       .  A
C2907      C2908   1.400       .  A
C2907      C3932   1.408   1_545  A
C2907      H2914   1.083       .  S
C2908      C2909   1.419       .  A
C2909      C2910   1.405       .  A
C2909      N2916   1.440       .  S
C2910      C3931   1.399   1_545  A
C2910      H2915   1.082       .  S
C2911      C3930   1.399       .  A
C2911      C2912   1.412       .  A
C2912      C3927   1.408       .  A
C2912      N2913   1.433       .  S
N2913      O2917   1.262       .  A
N2913      O2918   1.262       .  A
N2916      O2919   1.259       .  A
N2916      O2920   1.263       .  A
C2921      C2922   1.401       .  A
C2921      C2926   1.402       .  A
C2921      H2928   1.084       .  S
C2922      C2923   1.415       .  A
C2923      C2924   1.391       .  A
C2923      N2930   1.441       .  S
C2924      C2925   1.404       .  A
C2924      H2929   1.081       .  S
C2925      C2926   1.414       .  A
C2926      N2927   1.442       .  S
N2927      O2931   1.263       .  A
N2927      O2932   1.260       .  A
N2930      O2934   1.263       .  A
C2935      C2936   1.400       .  A
C2935      C2940   1.400       .  A
C2935      H2942   1.084       .  S
C2936      C2937   1.411       .  A
C2937      C2938   1.395       .  A
C2937      N2944   1.435       .  S
C2938      C2939   1.398       .  A
C2938      H2943   1.085       .  S
C2939      C2940   1.412       .  A
C2940      N2941   1.436       .  S
N2941      O2945   1.263       .  A
N2941      O2946   1.261       .  A
N2944      O2947   1.261       .  A
N2944      O2948   1.263       .  A
C2949      C2954   1.404   1_554  A
C2949      H2956   1.085       .  S
C2951      C2952   1.413       .  A
C2951      N2958   1.439       .  S
C2952      H2957   1.083       .  S
C2954      N2955   1.433       .  S
N2955      O2959   1.262       .  A
N2955      O2960   1.262       .  A
N2958      O2962   1.262       .  A
C2963      C2968   1.417       .  A
C2963      H2970   1.083       .  S
C2964      C2965   1.407       .  A
C2965      N2972   1.427       .  S
C2966      C2967   1.403       .  A
C2966      H2971   1.085       .  S
C2967      C2968   1.416       .  A
C2968      N2969   1.442       .  S
N2969      O2973   1.263       .  A
N2969      O2974   1.262       .  A
N2972      O2975   1.261       .  A
N2972      O2976   1.262       .  A
C2977      C2978   1.412       .  A
C2977      C2982   1.415       .  A
C2977      H2984   1.083       .  S
C2978      C2979   1.427       .  A
C2979      C2980   1.406       .  A
C2979      N2986   1.436       .  S
C2980      C2981   1.402       .  A
C2980      H2985   1.083       .  S
C2981      C3609   1.500       .  S
C2981      C2982   1.417       .  A
C2982      N4003   1.442       .  S
N2983      C4002   1.442   1_545  S
N2983      O2987   1.262       .  A
N2983      O2988   1.263       .  A
N2986      O2989   1.263       .  A
N2986      O2990   1.262       .  A
C2991      C2992   1.404       .  A
C2991      C2996   1.412       .  A
C2991      H2998   1.081       .  S
C2992      C2993   1.407       .  A
C2993      C2994   1.396       .  A
C2993      N3000   1.442       .  S
C2994      C2995   1.410       .  A
C2994      H2999   1.083       .  S
C2995      C2996   1.418       .  A
C2996      N2997   1.435       .  S
N2997      O3001   1.263       .  A
N2997      O3002   1.262       .  A
N3000      O3003   1.262       .  A
C3005      C3006   1.409       .  A
C3005      C3010   1.394       .  A
C3005      H3012   1.083       .  S
C3006      C3007   1.415       .  A
C3007      C3008   1.413       .  A
C3007      N3014   1.434       .  S
C3008      C3009   1.409       .  A
C3008      H3013   1.076       .  S
C3009      C3667   1.488       .  S
C3009      C3010   1.405       .  A
C3010      N4031   1.429       .  S
N3011      C4030   1.429   1_545  S
N3011      O3015   1.261       .  A
N3011      O3016   1.262       .  A
N3014      O3017   1.262       .  A
N3014      O3018   1.262       .  A
C3019      C3020   1.403       .  A
C3019      C3024   1.401       .  A
C3019      H3026   1.084       .  S
C3020      C3021   1.418       .  A
C3021      C3022   1.404       .  A
C3021      N3028   1.433       .  S
C3022      C3023   1.404       .  A
C3022      H3027   1.084       .  S
C3023      C3024   1.421       .  A
C3024      N3025   1.433       .  S
N3025      O3029   1.263       .  A
N3025      O3030   1.260       .  A
N3028      O3031   1.262       .  A
N3028      O3032   1.262       .  A
C3033      C3034   1.405       .  A
C3033      H3040   1.084   1_556  S
C3034      C3035   1.416       .  A
C3035      C3036   1.400       .  A
C3035      N3042   1.425       .  S
C3036      H3041   1.082       .  S
C3037      C3038   1.412       .  A
C3038      N3039   1.429       .  S
N3039      O3043   1.262       .  A
N3039      O3044   1.261       .  A
N3042      O3045   1.262       .  A
N3042      O3046   1.262       .  A
C3047      C3048   1.398       .  A
C3047      C3052   1.384       .  A
C3047      H3054   1.085       .  S
C3048      C3049   1.412       .  A
C3049      C3050   1.409       .  A
C3049      N3056   1.431       .  S
C3050      C3051   1.410       .  A
C3050      H3055   1.083       .  S
C3051      C3052   1.422       .  A
C3052      N3053   1.437       .  S
N3053      O3057   1.263       .  A
N3053      O3058   1.259       .  A
N3056      O3059   1.261       .  A
N3056      O3060   1.262       .  A
O3061      C3069   1.263       .  A
O3061     Co3081   1.976       .  S
O3062      C3070   1.269       .  A
O3062     Co3082   1.960       .  S
O3063      C3071   1.311       .  A
O3063     Co3083   2.133       .  S
O3064      C3072   1.264       .  A
O3064     Co3084   2.054   1_455  S
O3065      C3071   1.281       .  A
O3065     Co3082   1.875       .  S
O3066      C3072   1.243   1_655  A
O3066     Co3081   1.933       .  S
O3067      C3070   1.278       .  A
O3067     Co3084   2.042       .  S
O3068      C3069   1.264       .  A
O3068     Co3083   2.021       .  S
C3069      C3488   1.509       .  S
C3070      C3463   1.490       .  S
C3071      C3544   1.489       .  S
O3073      C3086   1.285       .  A
O3073     Co3081   2.065       .  S
O3074      C3087   1.246       .  A
O3074     Co3082   2.023       .  S
O3075      C3088   1.262       .  A
O3075     Co3083   1.979       .  S
O3076      C3089   1.257       .  A
O3076     Co3084   1.950       .  S
O3077      C3089   1.274       .  A
O3077     Co3082   2.052       .  S
O3078      C3088   1.258       .  A
O3078     Co3081   1.980       .  S
O3079      C3086   1.261       .  A
O3079     Co3084   1.949       .  S
O3080      C3087   1.242       .  A
O3080     Co3083   1.969       .  S
Co3081     O3085   2.057       .  S
Co3082     O3085   2.032       .  S
Co3083     O3085   2.115       .  S
Co3084     O3085   2.091       .  S
C3086      C3474   1.492       .  S
C3087      C3533   1.492       .  S
C3088      C3561   1.486       .  S
C3089      C3505   1.493       .  S
O3090      C3098   1.269       .  A
O3090     Co3110   1.887       .  S
O3091      C3099   1.245       .  A
O3091     Co3111   1.983       .  S
O3092      C3100   1.268       .  A
O3093      C3101   1.272       .  A
O3093     Co3113   2.029       .  S
O3094     Co3111   1.963       .  S
O3095      C3101   1.262       .  A
O3095     Co3110   1.975       .  S
O3096      C3099   1.253       .  A
O3096     Co3113   2.009       .  S
O3097      C3098   1.303       .  A
O3097     Co3112   2.092       .  S
C3098      C3393   1.485       .  S
C3100      C3432   1.461       .  S
C3101      C3418   1.478       .  S
O3102      C3115   1.270       .  A
O3102     Co3110   2.000       .  S
O3103      C3116   1.264       .  A
O3103     Co3111   1.980       .  S
O3104      C3117   1.249       .  A
O3104     Co3112   1.981       .  S
O3105      C3118   1.302       .  A
O3105     Co3113   2.073       .  S
O3106      C3118   1.273       .  A
O3106     Co3111   1.888       .  S
O3107      C3117   1.249       .  A
O3107     Co3110   1.979       .  S
O3108      C3115   1.265       .  A
O3108     Co3113   1.972       .  S
O3109      C3116   1.267       .  A
O3109     Co3112   2.004       .  S
Co3110     O3114   1.932       .  S
Co3111     O3114   1.910       .  S
Co3112     O3114   2.135       .  S
Co3113     O3114   2.159       .  S
C3115      C3449   1.458       .  S
C3116      C3376   1.471       .  S
C3117      C3502   1.472       .  S
C3118      C3404   1.462       .  S
O3119      C3127   1.257       .  A
O3119     Co3139   2.021       .  S
O3120      C3128   1.255       .  A
O3120     Co3140   2.007       .  S
O3121      C3129   1.253       .  A
O3121     Co3141   1.969       .  S
O3122      C3130   1.245       .  A
O3122     Co3142   1.943       .  S
O3123      C3129   1.261       .  A
O3123     Co3140   1.991       .  S
O3124      C3130   1.273       .  A
O3124     Co3139   2.064       .  S
O3125      C3128   1.248       .  A
O3125     Co3142   1.970       .  S
O3126      C3127   1.254       .  A
O3126     Co3141   1.968       .  S
C3128      C3295   1.472       .  S
C3130      C3460   1.482       .  S
O3131      C3144   1.258       .  A
O3131     Co3139   1.955       .  S
O3132      C3145   1.251       .  A
O3132     Co3140   1.947       .  S
O3133      C3146   1.280       .  A
O3133     Co3141   2.035       .  S
O3134      C3147   1.276       .  A
O3134     Co3142   2.059       .  S
O3135      C3147   1.254       .  A
O3135     Co3140   1.944       .  S
O3136      C3146   1.267       .  A
O3136     Co3139   1.941       .  S
O3137      C3144   1.271       .  A
O3137     Co3142   2.023       .  S
O3138      C3145   1.254       .  A
O3138     Co3141   1.982       .  S
Co3139     O3143   2.053       .  S
Co3140     O3143   2.114       .  S
Co3141     O3143   2.163       .  S
Co3142     O3143   2.089       .  S
C3144      C3334   1.469       .  S
C3145      C3309   1.486       .  S
C3146      C3477   1.479       .  S
C3147      C3348   1.503       .  S
O3148      C3156   1.270       .  A
O3148     Co3168   2.040       .  S
O3149      C3157   1.275       .  A
O3149     Co3169   2.016       .  S
O3150      C3158   1.257       .  A
O3150     Co3170   1.949       .  S
O3151      C3159   1.258       .  A
O3151     Co3171   1.858       .  S
O3152      C3158   1.272       .  A
O3152     Co3169   2.032       .  S
O3153      C3159   1.300       .  A
O3153     Co3168   2.124       .  S
O3154      C3157   1.277       .  A
O3154     Co3171   1.989       .  S
O3155      C3156   1.256       .  A
O3155     Co3170   1.967       .  S
C3156      C3267   1.495       .  S
C3158      C3306   1.472       .  S
C3159      C3435   1.478       .  S
O3160      C3173   1.270       .  A
O3160     Co3168   1.909       .  S
O3161      C3174   1.259       .  A
O3161     Co3169   1.952       .  S
O3162      C3175   1.276       .  A
O3162     Co3170   2.025       .  S
O3163      C3176   1.256       .  A
O3163     Co3171   1.980       .  S
O3164      C3176   1.259       .  A
O3164     Co3169   1.984       .  S
O3165      C3175   1.269       .  A
O3165     Co3168   1.968       .  S
O3166      C3173   1.298       .  A
O3166     Co3171   2.103       .  S
O3167      C3174   1.269       .  A
O3167     Co3170   2.016       .  S
Co3168     O3172   2.031       .  S
Co3169     O3172   2.056       .  S
Co3170     O3172   2.020       .  S
Co3171     O3172   1.978       .  S
C3173      C3281   1.490       .  S
C3174      C3446   1.458       .  S
C3175      C3530   1.491       .  S
C3176      C3292   1.478       .  S
O3177      C3185   1.279       .  A
O3177     Co3197   2.045       .  S
O3178      C3186   1.265       .  A
O3178     Co3198   2.046       .  S
O3179      C3187   1.261       .  A
O3179     Co3199   1.903       .  S
O3180      C3188   1.248       .  A
O3180     Co3200   1.932       .  S
O3181      C3187   1.296       .  A
O3181     Co3198   2.108       .  S
O3182      C3188   1.268       .  A
O3182     Co3197   2.031       .  S
O3183      C3186   1.246       .  A
O3183     Co3200   1.953       .  S
O3184      C3185   1.261       .  A
O3184     Co3199   1.962       .  S
C3186      C3278   1.496       .  S
C3187      C3379   1.473       .  S
C3188      C3320   1.472       .  S
O3189      C3202   1.261       .  A
O3189     Co3197   1.963       .  S
O3190      C3203   1.266       .  A
O3190     Co3198   1.897       .  S
O3191      C3204   1.257       .  A
O3191     Co3199   2.015       .  S
O3192      C3205   1.275       .  A
O3192     Co3200   2.022       .  S
O3193      C3205   1.262       .  A
O3193     Co3198   1.969       .  S
O3194      C3204   1.249       .  A
O3194     Co3197   1.959       .  S
O3195      C3202   1.277       .  A
O3195     Co3200   2.047       .  S
O3196      C3203   1.293       .  A
O3196     Co3199   2.081       .  S
Co3197     O3201   2.045       .  S
Co3198     O3201   2.033       .  S
Co3199     O3201   2.028       .  S
Co3200     O3201   2.022       .  S
C3202      C3264   1.503       .  S
C3203      C3337   1.463       .  S
C3204      C3390   1.478       .  S
C3205      C3250   1.469       .  S
O3206      C3214   1.257       .  A
O3206     Co3226   1.962       .  S
O3207      C3215   1.269       .  A
O3207     Co3227   1.967       .  S
O3208      C3216   1.287       .  A
O3208     Co3228   2.085       .  S
O3209      C3217   1.272       .  A
O3209     Co3229   2.059   1_545  S
O3210      C3216   1.266       .  A
O3210     Co3227   1.904       .  S
O3211      C3217   1.247   1_565  A
O3211     Co3226   1.942       .  S
O3212      C3215   1.275       .  A
O3212     Co3229   2.013       .  S
O3213      C3214   1.269       .  A
O3213     Co3228   2.034       .  S
C3214      C3365   1.494       .  S
C3215      C3407   1.470       .  S
C3216      C3547   1.476       .  S
O3218      C3231   1.283       .  A
O3218     Co3226   2.054       .  S
O3219      C3232   1.297       .  A
O3219     Co3227   2.102       .  S
O3220      C3233   1.271       .  A
O3220     Co3228   1.980       .  S
O3221      C3234   1.263       .  A
O3221     Co3229   1.985       .  S
O3222      C3234   1.266       .  A
O3222     Co3227   2.012       .  S
O3223      C3233   1.272       .  A
O3223     Co3226   1.986       .  S
O3224      C3231   1.264       .  A
O3224     Co3229   1.964       .  S
O3225      C3232   1.271       .  A
O3225     Co3228   1.887       .  S
Co3226     O3230   1.993       .  S
Co3227     O3230   1.996       .  S
Co3228     O3230   2.027       .  S
Co3229     O3230   2.057       .  S
C3231      C3421   1.484       .  S
C3232      C3253   1.470       .  S
C3233      C3558   1.479       .  S
C3234      C3351   1.500       .  S
C3235      C3236   1.414       .  A
C3235      C3240   1.404       .  A
C3235      H3242   1.083       .  S
C3236      C3237   1.411       .  A
C3237      C3238   1.407       .  A
C3237      N3244   1.430       .  S
C3238      C3239   1.406       .  A
C3238      H3243   1.084       .  S
C3239      C3240   1.407       .  A
N3241      O3245   1.261       .  A
N3241      O3246   1.261       .  A
N3244      O3247   1.260       .  A
N3244      O3248   1.262       .  A
C3249      C3250   1.401       .  A
C3249      C3254   1.394       .  A
C3249      H3256   1.084       .  S
C3250      C3251   1.420       .  A
C3251      C3252   1.413       .  A
C3251      N3258   1.446       .  S
C3252      C3253   1.403       .  A
C3252      H3257   1.083       .  S
C3253      C3254   1.405       .  A
C3254      N3255   1.431       .  S
N3255      O3259   1.262       .  A
N3255      O3260   1.262       .  A
N3258      O3261   1.261       .  A
N3258      O3262   1.263       .  A
C3263      C3264   1.410       .  A
C3263      C3268   1.408       .  A
C3263      H3270   1.083       .  S
C3264      C3265   1.416       .  A
C3265      C3266   1.411       .  A
C3265      N3272   1.437       .  S
C3266      C3267   1.409       .  A
C3266      H3271   1.084       .  S
C3267      C3268   1.410       .  A
C3268      N3269   1.431       .  S
N3269      O3273   1.262       .  A
N3269      O3274   1.263       .  A
N3272      O3275   1.263       .  A
N3272      O3276   1.262       .  A
C3277      C3278   1.410       .  A
C3277      C3792   1.422   1_554  A
C3277      H3284   1.083       .  S
C3278      C3279   1.418       .  A
C3279      C3790   1.390   1_554  A
C3279      N3286   1.432       .  S
C3280      C3789   1.390       .  A
C3280      C3281   1.398       .  A
C3280      H3285   1.082       .  S
C3281      C3282   1.421       .  A
C3282      C3787   1.422       .  A
C3282      N3283   1.440       .  S
N3283      O3287   1.263       .  A
N3283      O3288   1.263       .  A
N3286      O3289   1.262       .  A
N3286      O3290   1.262       .  A
C3291      C3802   1.404   1_554  A
C3291      C3296   1.405       .  A
C3291      H3298   1.084       .  S
C3292      C3801   1.404       .  A
C3293      C3294   1.403   1_545  A
C3293      N3300   1.435       .  S
C3294      C3805   1.402       .  A
C3294      H3299   1.084       .  S
C3295      C3804   1.402       .  A
C3296      N3297   1.444       .  S
N3297      O3301   1.263       .  A
N3297      O3302   1.261       .  A
N3300      O3304   1.263   1_545  A
C3305      C3306   1.407       .  A
C3306      C3307   1.409       .  A
C3307      C3308   1.385       .  A
C3307      N3314   1.440       .  S
C3308      H3313   1.083       .  S
C3309      C3310   1.414       .  A
C3310      N3311   1.434       .  S
N3311      O3315   1.262       .  A
N3311      O3316   1.262       .  A
N3314      O3317   1.261       .  A
N3314      O3318   1.263       .  A
C3319      C3320   1.410       .  A
C3319      C3324   1.403       .  A
C3319      H3326   1.084       .  S
C3320      C3321   1.402       .  A
C3321      C3322   1.398       .  A
C3321      N3328   1.434       .  S
C3322      C3323   1.413       .  A
C3322      H3327   1.083       .  S
C3323      C3324   1.411       .  A
C3324      N3325   1.440       .  S
N3325      O3329   1.263       .  A
N3325      O3330   1.263       .  A
N3328      O3331   1.262       .  A
N3328      O3332   1.262       .  A
C3333      C3334   1.403       .  A
C3333      C3338   1.407       .  A
C3333      H3340   1.084       .  S
C3334      C3335   1.412       .  A
C3335      C3336   1.394       .  A
C3335      N3342   1.433       .  S
C3336      C3337   1.397       .  A
C3336      H3341   1.084       .  S
C3337      C3338   1.414       .  A
C3338      N3339   1.438       .  S
N3339      O3343   1.263       .  A
N3339      O3344   1.262       .  A
N3342      O3345   1.262       .  A
N3342      O3346   1.262       .  A
C3347      C3348   1.410       .  A
C3347      C3352   1.401       .  A
C3347      H3354   1.083       .  S
C3348      C3349   1.418       .  A
C3349      C3350   1.414       .  A
C3349      N3356   1.433       .  S
C3350      C3351   1.411       .  A
C3350      H3355   1.083       .  S
C3351      C3352   1.415       .  A
C3352      N3353   1.435       .  S
N3353      O3357   1.263       .  A
N3353      O3358   1.263       .  A
N3356      O3359   1.262       .  A
N3356      O3360   1.262       .  A
C3361      C3362   1.408       .  A
C3361      C3366   1.407       .  A
C3361      H3368   1.083       .  S
C3362      C3363   1.403       .  A
C3363      C3364   1.399       .  A
C3364      C3365   1.412       .  A
C3364      H3369   1.084       .  S
C3365      C3366   1.416       .  A
C3366      N3367   1.433       .  S
N3367      O3371   1.262       .  A
N3367      O3372   1.262       .  A
N3370      O3373   1.261       .  A
N3370      O3374   1.261       .  A
C3375      C3890   1.401       .  A
C3375      H3382   1.084       .  S
C3377      C3888   1.408       .  A
C3378      C3887   1.408   1_554  A
C3378      C3379   1.403       .  A
C3378      H3383   1.083       .  S
C3379      C3380   1.413       .  A
C3380      C3885   1.401       .  A
C3380      N3381   1.436       .  S
N3381      O3385   1.263       .  A
N3381      O3386   1.261       .  A
N3384      O3387   1.261       .  A
C3389      C3390   1.402       .  A
C3389      H3396   1.084       .  S
C3390      C3391   1.412       .  A
C3391      C3392   1.392       .  A
C3391      N3398   1.431       .  S
C3392      H3397   1.085       .  S
C3393      C3394   1.422       .  A
C3394      N3395   1.436       .  S
N3395      O3399   1.263       .  A
N3395      O3400   1.261       .  A
N3398      O3401   1.261       .  A
N3398      O3402   1.262       .  A
C3403      C3408   1.402       .  A
C3403      H3410   1.084       .  S
C3404      C3915   1.409       .  A
C3405      C3914   1.409   1_554  A
C3405      C3406   1.401       .  A
C3405      N3412   1.436       .  S
C3406      H3411   1.083       .  S
C3407      C3918   1.415       .  A
C3408      C3917   1.415       .  A
C3408      N3409   1.440       .  S
N3409      O3413   1.263       .  A
N3409      O3414   1.262       .  A
N3412      O3415   1.262       .  A
N3412      O3416   1.263       .  A
C3417      C3418   1.400       .  A
C3417      H3424   1.083       .  S
C3418      C3419   1.419       .  A
C3419      C3420   1.405       .  A
C3419      N3426   1.440       .  S
C3420      H3425   1.082       .  S
C3421      C3422   1.412       .  A
C3422      N3423   1.433       .  S
N3423      O3427   1.262       .  A
N3423      O3428   1.262       .  A
N3426      O3429   1.259       .  A
N3426      O3430   1.263       .  A
C3431      C3432   1.401       .  A
C3431      C3436   1.402       .  A
C3431      H3438   1.084       .  S
C3432      C3433   1.415       .  A
C3433      C3434   1.391       .  A
C3433      N3440   1.441       .  S
C3434      C3435   1.404       .  A
C3434      H3439   1.081       .  S
C3435      C3436   1.414       .  A
C3436      N3437   1.442       .  S
N3437      O3441   1.263       .  A
N3437      O3442   1.260       .  A
N3440      O3444   1.263       .  A
C3445      C3446   1.400       .  A
C3445      C3450   1.400       .  A
C3445      H3452   1.084       .  S
C3446      C3447   1.411       .  A
C3447      C3448   1.395       .  A
C3447      N3454   1.435       .  S
C3448      C3449   1.398       .  A
C3448      H3453   1.085       .  S
C3449      C3450   1.412       .  A
C3450      N3451   1.436       .  S
N3451      O3455   1.263       .  A
N3451      O3456   1.261       .  A
N3454      O3457   1.261       .  A
N3454      O3458   1.263       .  A
C3459      C3970   1.408       .  A
C3459      C3464   1.404       .  A
C3459      H3466   1.085       .  S
C3460      C3969   1.408       .  A
C3461      C3462   1.413   1_554  A
C3461      N3468   1.439       .  S
C3462      C3973   1.408       .  A
C3462      H3467   1.083       .  S
C3463      C3972   1.408       .  A
C3464      N3465   1.433       .  S
N3465      O3469   1.262       .  A
N3465      O3470   1.262       .  A
N3468      O3472   1.262       .  A
C3473      C3478   1.417       .  A
C3473      H3480   1.083       .  S
C3474      C3475   1.407       .  A
C3475      N3482   1.427       .  S
C3476      C3477   1.403       .  A
C3476      H3481   1.085       .  S
C3477      C3478   1.416       .  A
C3478      N3479   1.442       .  S
N3479      O3483   1.263       .  A
N3479      O3484   1.262       .  A
N3482      O3485   1.261       .  A
N3482      O3486   1.262       .  A
C3487      C3488   1.412       .  A
C3487      C3492   1.415       .  A
C3487      H3494   1.083       .  S
C3488      C3489   1.427       .  A
C3489      C3490   1.406       .  A
C3489      N3496   1.436       .  S
C3490      C3491   1.402       .  A
C3490      H3495   1.083       .  S
C3491      C3492   1.417       .  A
N3493      O3497   1.262       .  A
N3493      O3498   1.263       .  A
N3496      O3499   1.263       .  A
N3496      O3500   1.262       .  A
C3501      C3502   1.404       .  A
C3501      C3506   1.412       .  A
C3501      H3508   1.081       .  S
C3502      C3503   1.407       .  A
C3503      C3504   1.396       .  A
C3503      N3510   1.442       .  S
C3504      C3505   1.410       .  A
C3504      H3509   1.083       .  S
C3505      C3506   1.418       .  A
C3506      N3507   1.435       .  S
N3507      O3511   1.263       .  A
N3507      O3512   1.262       .  A
N3510      O3513   1.262       .  A
C3515      C3516   1.409       .  A
C3515      C3520   1.394       .  A
C3515      H3522   1.083       .  S
C3516      C3517   1.415       .  A
C3517      C3518   1.413       .  A
C3517      N3524   1.434       .  S
C3518      C3519   1.409       .  A
C3518      H3523   1.076       .  S
C3519      C3520   1.405       .  A
N3521      O3525   1.261       .  A
N3521      O3526   1.262       .  A
N3524      O3527   1.262       .  A
N3524      O3528   1.262       .  A
C3529      C3530   1.403       .  A
C3529      C3534   1.401       .  A
C3529      H3536   1.084       .  S
C3530      C3531   1.418       .  A
C3531      C3532   1.404       .  A
C3531      N3538   1.433       .  S
C3532      C3533   1.404       .  A
C3532      H3537   1.084       .  S
C3533      C3534   1.421       .  A
C3534      N3535   1.433       .  S
N3535      O3539   1.263       .  A
N3535      O3540   1.260       .  A
N3538      O3541   1.262       .  A
N3538      O3542   1.262       .  A
C3543      C3544   1.405       .  A
C3543      C4058   1.402       .  A
C3543      H3550   1.084       .  S
C3544      C3545   1.416       .  A
C3545      C3546   1.400       .  A
C3545      N3552   1.425       .  S
C3546      C4057   1.393       .  A
C3546      H3551   1.082       .  S
C3547      C4056   1.393   1_554  A
C3547      C3548   1.412       .  A
C3548      C4053   1.402   1_554  A
C3548      N3549   1.429       .  S
N3549      O3553   1.262       .  A
N3549      O3554   1.261       .  A
N3552      O3555   1.262       .  A
N3552      O3556   1.262       .  A
C3557      C3558   1.398       .  A
C3557      C3562   1.384       .  A
C3557      H3564   1.085       .  S
C3558      C3559   1.412       .  A
C3559      C3560   1.409       .  A
C3559      N3566   1.431       .  S
C3560      C3561   1.410       .  A
C3560      H3565   1.083       .  S
C3561      C3562   1.422       .  A
C3562      N3563   1.437       .  S
N3563      O3567   1.263       .  A
N3563      O3568   1.259       .  A
N3566      O3569   1.261       .  A
N3566      O3570   1.262       .  A
O3571      C3579   1.263       .  A
O3571     Co3591   1.976       .  S
O3572      C3580   1.269       .  A
O3572     Co3592   1.960       .  S
O3573      C3581   1.311       .  A
O3573     Co3593   2.133       .  S
O3574      C3582   1.264       .  A
O3574     Co3594   2.054   1_455  S
O3575      C3581   1.281       .  A
O3575     Co3592   1.875       .  S
O3576      C3582   1.243   1_655  A
O3576     Co3591   1.933       .  S
O3577      C3580   1.278       .  A
O3577     Co3594   2.042       .  S
O3578      C3579   1.264       .  A
O3578     Co3593   2.021       .  S
C3579      C3998   1.509       .  S
C3580      C3973   1.490       .  S
C3581      C4054   1.489       .  S
O3583      C3596   1.285       .  A
O3583     Co3591   2.065       .  S
O3584      C3597   1.246       .  A
O3584     Co3592   2.023       .  S
O3585      C3598   1.262       .  A
O3585     Co3593   1.979       .  S
O3586      C3599   1.257       .  A
O3586     Co3594   1.950       .  S
O3587      C3599   1.274       .  A
O3587     Co3592   2.052       .  S
O3588      C3598   1.258       .  A
O3588     Co3591   1.980       .  S
O3589      C3596   1.261       .  A
O3589     Co3594   1.949       .  S
O3590      C3597   1.242       .  A
O3590     Co3593   1.969       .  S
Co3591     O3595   2.057       .  S
Co3592     O3595   2.032       .  S
Co3593     O3595   2.115       .  S
Co3594     O3595   2.091       .  S
C3596      C3984   1.492       .  S
C3597      C4043   1.492       .  S
C3598      C4071   1.486       .  S
C3599      C4015   1.493       .  S
O3600      C3608   1.269       .  A
O3600     Co3620   1.887       .  S
O3601      C3609   1.245       .  A
O3601     Co3621   1.983       .  S
O3602      C3610   1.268       .  A
O3603      C3611   1.272       .  A
O3603     Co3623   2.029       .  S
O3604     Co3621   1.963       .  S
O3605      C3611   1.262       .  A
O3605     Co3620   1.975       .  S
O3606      C3609   1.253       .  A
O3606     Co3623   2.009       .  S
O3607      C3608   1.303       .  A
O3607     Co3622   2.092       .  S
C3608      C3903   1.485       .  S
C3610      C3942   1.461       .  S
C3611      C3928   1.478       .  S
O3612      C3625   1.270       .  A
O3612     Co3620   2.000       .  S
O3613      C3626   1.264       .  A
O3613     Co3621   1.980       .  S
O3614      C3627   1.249       .  A
O3614     Co3622   1.981       .  S
O3615      C3628   1.302       .  A
O3615     Co3623   2.073       .  S
O3616      C3628   1.273       .  A
O3616     Co3621   1.888       .  S
O3617      C3627   1.249       .  A
O3617     Co3620   1.979       .  S
O3618      C3625   1.265       .  A
O3618     Co3623   1.972       .  S
O3619      C3626   1.267       .  A
O3619     Co3622   2.004       .  S
Co3620     O3624   1.932       .  S
Co3621     O3624   1.910       .  S
Co3622     O3624   2.135       .  S
Co3623     O3624   2.159       .  S
C3625      C3959   1.458       .  S
C3626      C3886   1.471       .  S
C3627      C4012   1.472       .  S
C3628      C3914   1.462       .  S
O3629      C3637   1.257       .  A
O3629     Co3649   2.021       .  S
O3630      C3638   1.255       .  A
O3630     Co3650   2.007       .  S
O3631      C3639   1.253       .  A
O3631     Co3651   1.969       .  S
O3632      C3640   1.245       .  A
O3632     Co3652   1.943       .  S
O3633      C3639   1.261       .  A
O3633     Co3650   1.991       .  S
O3634      C3640   1.273       .  A
O3634     Co3649   2.064       .  S
O3635      C3638   1.248       .  A
O3635     Co3652   1.970       .  S
O3636      C3637   1.254       .  A
O3636     Co3651   1.968       .  S
C3638      C3805   1.472       .  S
C3640      C3970   1.482       .  S
O3641      C3654   1.258       .  A
O3641     Co3649   1.955       .  S
O3642      C3655   1.251       .  A
O3642     Co3650   1.947       .  S
O3643      C3656   1.280       .  A
O3643     Co3651   2.035       .  S
O3644      C3657   1.276       .  A
O3644     Co3652   2.059       .  S
O3645      C3657   1.254       .  A
O3645     Co3650   1.944       .  S
O3646      C3656   1.267       .  A
O3646     Co3649   1.941       .  S
O3647      C3654   1.271       .  A
O3647     Co3652   2.023       .  S
O3648      C3655   1.254       .  A
O3648     Co3651   1.982       .  S
Co3649     O3653   2.053       .  S
Co3650     O3653   2.114       .  S
Co3651     O3653   2.163       .  S
Co3652     O3653   2.089       .  S
C3654      C3844   1.469       .  S
C3655      C3819   1.486       .  S
C3656      C3987   1.479       .  S
C3657      C3858   1.503       .  S
O3658      C3666   1.270       .  A
O3658     Co3678   2.040       .  S
O3659      C3667   1.275       .  A
O3659     Co3679   2.016       .  S
O3660      C3668   1.257       .  A
O3660     Co3680   1.949       .  S
O3661      C3669   1.258       .  A
O3661     Co3681   1.858       .  S
O3662      C3668   1.272       .  A
O3662     Co3679   2.032       .  S
O3663      C3669   1.300       .  A
O3663     Co3678   2.124       .  S
O3664      C3667   1.277       .  A
O3664     Co3681   1.989       .  S
O3665      C3666   1.256       .  A
O3665     Co3680   1.967       .  S
C3666      C3777   1.495       .  S
C3668      C3816   1.472       .  S
C3669      C3945   1.478       .  S
O3670      C3683   1.270       .  A
O3670     Co3678   1.909       .  S
O3671      C3684   1.259       .  A
O3671     Co3679   1.952       .  S
O3672      C3685   1.276       .  A
O3672     Co3680   2.025       .  S
O3673      C3686   1.256       .  A
O3673     Co3681   1.981       .  S
O3674      C3686   1.259       .  A
O3674     Co3679   1.983       .  S
O3675      C3685   1.269       .  A
O3675     Co3678   1.968       .  S
O3676      C3683   1.298       .  A
O3676     Co3681   2.103       .  S
O3677      C3684   1.269       .  A
O3677     Co3680   2.016       .  S
Co3678     O3682   2.031       .  S
Co3679     O3682   2.056       .  S
Co3680     O3682   2.020       .  S
Co3681     O3682   1.978       .  S
C3683      C3791   1.490       .  S
C3684      C3956   1.458       .  S
C3685      C4040   1.491       .  S
C3686      C3802   1.478       .  S
O3687      C3695   1.279       .  A
O3687     Co3707   2.045       .  S
O3688      C3696   1.265       .  A
O3688     Co3708   2.046       .  S
O3689      C3697   1.261       .  A
O3689     Co3709   1.903       .  S
O3690      C3698   1.248       .  A
O3690     Co3710   1.932       .  S
O3691      C3697   1.296       .  A
O3691     Co3708   2.108       .  S
O3692      C3698   1.268       .  A
O3692     Co3707   2.031       .  S
O3693      C3696   1.246       .  A
O3693     Co3710   1.953       .  S
O3694      C3695   1.261       .  A
O3694     Co3709   1.962       .  S
C3696      C3788   1.496       .  S
C3697      C3889   1.473       .  S
C3698      C3830   1.472       .  S
O3699      C3712   1.261       .  A
O3699     Co3707   1.963       .  S
O3700      C3713   1.266       .  A
O3700     Co3708   1.897       .  S
O3701      C3714   1.257       .  A
O3701     Co3709   2.015       .  S
O3702      C3715   1.275       .  A
O3702     Co3710   2.022       .  S
O3703      C3715   1.262       .  A
O3703     Co3708   1.969       .  S
O3704      C3714   1.249       .  A
O3704     Co3707   1.959       .  S
O3705      C3712   1.277       .  A
O3705     Co3710   2.047       .  S
O3706      C3713   1.293       .  A
O3706     Co3709   2.081       .  S
Co3707     O3711   2.045       .  S
Co3708     O3711   2.033       .  S
Co3709     O3711   2.028       .  S
Co3710     O3711   2.022       .  S
C3712      C3774   1.503       .  S
C3713      C3847   1.463       .  S
C3714      C3900   1.478       .  S
C3715      C3760   1.469       .  S
O3716      C3724   1.257       .  A
O3716     Co3736   1.962       .  S
O3717      C3725   1.269       .  A
O3717     Co3737   1.967       .  S
O3718      C3726   1.287       .  A
O3718     Co3738   2.085       .  S
O3719      C3727   1.272       .  A
O3719     Co3739   2.059   1_545  S
O3720      C3726   1.266       .  A
O3720     Co3737   1.904       .  S
O3721      C3727   1.247   1_565  A
O3721     Co3736   1.942       .  S
O3722      C3725   1.275       .  A
O3722     Co3739   2.013       .  S
O3723      C3724   1.269       .  A
O3723     Co3738   2.034       .  S
C3724      C3875   1.494       .  S
C3725      C3917   1.470       .  S
C3726      C4057   1.476       .  S
O3728      C3741   1.283       .  A
O3728     Co3736   2.054       .  S
O3729      C3742   1.297       .  A
O3729     Co3737   2.102       .  S
O3730      C3743   1.271       .  A
O3730     Co3738   1.980       .  S
O3731      C3744   1.263       .  A
O3731     Co3739   1.985       .  S
O3732      C3744   1.266       .  A
O3732     Co3737   2.012       .  S
O3733      C3743   1.272       .  A
O3733     Co3736   1.986       .  S
O3734      C3741   1.264       .  A
O3734     Co3739   1.964       .  S
O3735      C3742   1.271       .  A
O3735     Co3738   1.887       .  S
Co3736     O3740   1.993       .  S
Co3737     O3740   1.996       .  S
Co3738     O3740   2.027       .  S
Co3739     O3740   2.057       .  S
C3741      C3931   1.484       .  S
C3742      C3763   1.470       .  S
C3743      C4068   1.479       .  S
C3744      C3861   1.500       .  S
C3745      C3746   1.414       .  A
C3745      C3750   1.404       .  A
C3745      H3752   1.083       .  S
C3746      C3747   1.411       .  A
C3747      C3748   1.407       .  A
C3747      N3754   1.430       .  S
C3748      C3749   1.406       .  A
C3748      H3753   1.084       .  S
C3749      C3750   1.407       .  A
N3751      O3755   1.261       .  A
N3751      O3756   1.261       .  A
N3754      O3757   1.260       .  A
N3754      O3758   1.262       .  A
C3759      C3760   1.401       .  A
C3759      C3764   1.394       .  A
C3759      H3766   1.084       .  S
C3760      C3761   1.420       .  A
C3761      C3762   1.413       .  A
C3761      N3768   1.446       .  S
C3762      C3763   1.403       .  A
C3762      H3767   1.083       .  S
C3763      C3764   1.405       .  A
C3764      N3765   1.431       .  S
N3765      O3769   1.262       .  A
N3765      O3770   1.262       .  A
N3768      O3771   1.261       .  A
N3768      O3772   1.263       .  A
C3773      C3774   1.410       .  A
C3773      C3778   1.408       .  A
C3773      H3780   1.083       .  S
C3774      C3775   1.416       .  A
C3775      C3776   1.411       .  A
C3775      N3782   1.437       .  S
C3776      C3777   1.409       .  A
C3776      H3781   1.084       .  S
C3777      C3778   1.410       .  A
C3778      N3779   1.431       .  S
N3779      O3783   1.262       .  A
N3779      O3784   1.263       .  A
N3782      O3785   1.263       .  A
N3782      O3786   1.262       .  A
C3787      C3788   1.410       .  A
C3787      H3794   1.083       .  S
C3788      C3789   1.418       .  A
C3789      N3796   1.432       .  S
C3790      C3791   1.398       .  A
C3790      H3795   1.082       .  S
C3791      C3792   1.421       .  A
C3792      N3793   1.440       .  S
N3793      O3797   1.263       .  A
N3793      O3798   1.263       .  A
N3796      O3799   1.262       .  A
N3796      O3800   1.262       .  A
C3801      C3806   1.405       .  A
C3801      H3808   1.084       .  S
C3803      C3804   1.403   1_546  A
C3803      N3810   1.435       .  S
C3804      H3809   1.084       .  S
C3806      N3807   1.444       .  S
N3807      O3811   1.263       .  A
N3807      O3812   1.261       .  A
N3810      O3814   1.263   1_545  A
C3815      C3816   1.407       .  A
C3816      C3817   1.409       .  A
C3817      C3818   1.385       .  A
C3817      N3824   1.440       .  S
C3818      H3823   1.083       .  S
C3819      C3820   1.414       .  A
C3820      N3821   1.434       .  S
N3821      O3825   1.262       .  A
N3821      O3826   1.262       .  A
N3824      O3827   1.261       .  A
N3824      O3828   1.263       .  A
C3829      C3830   1.410       .  A
C3829      C3834   1.403       .  A
C3829      H3836   1.084       .  S
C3830      C3831   1.402       .  A
C3831      C3832   1.398       .  A
C3831      N3838   1.434       .  S
C3832      C3833   1.413       .  A
C3832      H3837   1.083       .  S
C3833      C3834   1.411       .  A
C3834      N3835   1.440       .  S
N3835      O3839   1.263       .  A
N3835      O3840   1.263       .  A
N3838      O3841   1.262       .  A
N3838      O3842   1.262       .  A
C3843      C3844   1.403       .  A
C3843      C3848   1.407       .  A
C3843      H3850   1.084       .  S
C3844      C3845   1.412       .  A
C3845      C3846   1.394       .  A
C3845      N3852   1.433       .  S
C3846      C3847   1.397       .  A
C3846      H3851   1.084       .  S
C3847      C3848   1.414       .  A
C3848      N3849   1.438       .  S
N3849      O3853   1.263       .  A
N3849      O3854   1.262       .  A
N3852      O3855   1.262       .  A
N3852      O3856   1.262       .  A
C3857      C3858   1.410       .  A
C3857      C3862   1.401       .  A
C3857      H3864   1.083       .  S
C3858      C3859   1.418       .  A
C3859      C3860   1.414       .  A
C3859      N3866   1.433       .  S
C3860      C3861   1.411       .  A
C3860      H3865   1.083       .  S
C3861      C3862   1.415       .  A
C3862      N3863   1.435       .  S
N3863      O3867   1.263       .  A
N3863      O3868   1.263       .  A
N3866      O3869   1.262       .  A
N3866      O3870   1.262       .  A
C3871      C3872   1.408       .  A
C3871      C3876   1.407       .  A
C3871      H3878   1.083       .  S
C3872      C3873   1.403       .  A
C3873      C3874   1.399       .  A
C3874      C3875   1.412       .  A
C3874      H3879   1.084       .  S
C3875      C3876   1.416       .  A
C3876      N3877   1.433       .  S
N3877      O3881   1.262       .  A
N3877      O3882   1.262       .  A
N3880      O3883   1.261       .  A
N3880      O3884   1.261       .  A
C3885      H3892   1.084   1_554  S
C3888      C3889   1.403       .  A
C3888      H3893   1.083       .  S
C3889      C3890   1.413       .  A
C3890      N3891   1.436       .  S
N3891      O3895   1.263       .  A
N3891      O3896   1.261       .  A
N3894      O3897   1.261       .  A
C3899      C3900   1.402       .  A
C3899      H3906   1.084       .  S
C3900      C3901   1.412       .  A
C3901      C3902   1.392       .  A
C3901      N3908   1.431       .  S
C3902      H3907   1.085       .  S
C3903      C3904   1.422       .  A
C3904      N3905   1.436       .  S
N3905      O3909   1.263       .  A
N3905      O3910   1.261       .  A
N3908      O3911   1.261       .  A
N3908      O3912   1.262       .  A
C3913      C3918   1.402   1_556  A
C3913      H3920   1.084       .  S
C3915      C3916   1.401       .  A
C3915      N3922   1.436       .  S
C3916      H3921   1.083       .  S
C3918      N3919   1.440   1_554  S
N3919      O3923   1.263       .  A
N3919      O3924   1.262   1_556  A
N3922      O3925   1.262       .  A
N3922      O3926   1.263       .  A
C3927      C3928   1.400       .  A
C3927      H3934   1.083       .  S
C3928      C3929   1.419       .  A
C3929      C3930   1.405       .  A
C3929      N3936   1.440       .  S
C3930      H3935   1.082       .  S
C3931      C3932   1.412       .  A
C3932      N3933   1.433       .  S
N3933      O3937   1.262       .  A
N3933      O3938   1.262       .  A
N3936      O3939   1.259       .  A
N3936      O3940   1.263       .  A
C3941      C3942   1.401       .  A
C3941      C3946   1.402       .  A
C3941      H3948   1.084       .  S
C3942      C3943   1.415       .  A
C3943      C3944   1.391       .  A
C3943      N3950   1.441       .  S
C3944      C3945   1.404       .  A
C3944      H3949   1.081       .  S
C3945      C3946   1.414       .  A
C3946      N3947   1.442       .  S
N3947      O3951   1.263       .  A
N3947      O3952   1.260       .  A
N3950      O3954   1.263       .  A
C3955      C3956   1.400       .  A
C3955      C3960   1.400       .  A
C3955      H3962   1.084       .  S
C3956      C3957   1.411       .  A
C3957      C3958   1.395       .  A
C3957      N3964   1.435       .  S
C3958      C3959   1.398       .  A
C3958      H3963   1.085       .  S
C3959      C3960   1.412       .  A
C3960      N3961   1.436       .  S
N3961      O3965   1.263       .  A
N3961      O3966   1.261       .  A
N3964      O3967   1.261       .  A
N3964      O3968   1.263       .  A
C3969      C3974   1.404   1_554  A
C3969      H3976   1.085       .  S
C3971      C3972   1.413       .  A
C3971      N3978   1.439       .  S
C3972      H3977   1.083       .  S
C3974      N3975   1.433       .  S
N3975      O3979   1.262       .  A
N3975      O3980   1.262       .  A
N3978      O3982   1.262       .  A
C3983      C3988   1.417       .  A
C3983      H3990   1.083       .  S
C3984      C3985   1.407       .  A
C3985      N3992   1.427       .  S
C3986      C3987   1.403       .  A
C3986      H3991   1.085       .  S
C3987      C3988   1.416       .  A
C3988      N3989   1.442       .  S
N3989      O3993   1.263       .  A
N3989      O3994   1.262       .  A
N3992      O3995   1.261       .  A
N3992      O3996   1.262       .  A
C3997      C3998   1.412       .  A
C3997      C4002   1.415       .  A
C3997      H4004   1.083       .  S
C3998      C3999   1.427       .  A
C3999      C4000   1.406       .  A
C3999      N4006   1.436       .  S
C4000      C4001   1.402       .  A
C4000      H4005   1.083       .  S
C4001      C4002   1.417       .  A
N4003      O4007   1.262       .  A
N4003      O4008   1.263       .  A
N4006      O4009   1.263       .  A
N4006      O4010   1.262       .  A
C4011      C4012   1.404       .  A
C4011      C4016   1.412       .  A
C4011      H4018   1.081       .  S
C4012      C4013   1.407       .  A
C4013      C4014   1.396       .  A
C4013      N4020   1.442       .  S
C4014      C4015   1.410       .  A
C4014      H4019   1.083       .  S
C4015      C4016   1.418       .  A
C4016      N4017   1.435       .  S
N4017      O4021   1.263       .  A
N4017      O4022   1.262       .  A
N4020      O4023   1.262       .  A
C4025      C4026   1.409       .  A
C4025      C4030   1.394       .  A
C4025      H4032   1.083       .  S
C4026      C4027   1.415       .  A
C4027      C4028   1.413       .  A
C4027      N4034   1.434       .  S
C4028      C4029   1.409       .  A
C4028      H4033   1.076       .  S
C4029      C4030   1.405       .  A
N4031      O4035   1.261       .  A
N4031      O4036   1.262       .  A
N4034      O4037   1.262       .  A
N4034      O4038   1.262       .  A
C4039      C4040   1.403       .  A
C4039      C4044   1.401       .  A
C4039      H4046   1.084       .  S
C4040      C4041   1.418       .  A
C4041      C4042   1.404       .  A
C4041      N4048   1.433       .  S
C4042      C4043   1.404       .  A
C4042      H4047   1.084       .  S
C4043      C4044   1.421       .  A
C4044      N4045   1.433       .  S
N4045      O4049   1.263       .  A
N4045      O4050   1.260       .  A
N4048      O4051   1.262       .  A
N4048      O4052   1.262       .  A
C4053      C4054   1.405       .  A
C4053      H4060   1.084   1_556  S
C4054      C4055   1.416       .  A
C4055      C4056   1.400       .  A
C4055      N4062   1.425       .  S
C4056      H4061   1.082       .  S
C4057      C4058   1.412       .  A
C4058      N4059   1.429       .  S
N4059      O4063   1.262       .  A
N4059      O4064   1.261       .  A
N4062      O4065   1.262       .  A
N4062      O4066   1.262       .  A
C4067      C4068   1.398       .  A
C4067      C4072   1.384       .  A
C4067      H4074   1.085       .  S
C4068      C4069   1.412       .  A
C4069      C4070   1.409       .  A
C4069      N4076   1.431       .  S
C4070      C4071   1.410       .  A
C4070      H4075   1.083       .  S
C4071      C4072   1.422       .  A
C4072      N4073   1.437       .  S
N4073      O4077   1.263       .  A
N4073      O4078   1.259       .  A
N4076      O4079   1.261       .  A
N4076      O4080   1.262       .  A
