geometry optimzed in LAMMPS
_audit_creation_date              2020-11-30 
_audit_creation_method            'lammps2cif' 
_symmetry_space_group_name_H-M    'P1' 
_symmetry_Int_Tables_number       1 
_symmetry_cell_setting            triclinic 
loop_ 
_symmetry_equiv_pos_as_xyz 
  x,y,z 
_cell_length_a                    34.97806297 
_cell_length_b                    36.29970933012561 
_cell_length_c                    29.22784730825979 
_cell_angle_alpha                 90.00955726417367 
_cell_angle_beta                  118.70130399889588 
_cell_angle_gamma                 89.71107092404036 
loop_ 
_atom_site_label 
_atom_site_type_symbol 
_atom_site_fract_x 
_atom_site_fract_y 
_atom_site_fract_z 
_atom_site_charge 
C1          C  0.89547171  0.10945259  0.68373381     0.04000
C2          C  0.84992109  0.10683650  0.65578956    -0.12100
C3          C  0.82607744  0.12461100  0.60760665     0.01500
C4          C  0.84836381  0.14493411  0.58701271    -0.10600
C5          C  0.89395476  0.14782349  0.61497601     0.04000
C6          C  0.91736688  0.13039360  0.66344451    -0.10100
H7          H  0.83290897  0.09082167  0.67165885     0.09600
H8          H  0.83033628  0.15870822  0.54967977     0.07100
H9          H  0.95254235  0.13285723  0.68503144     0.07000
O10         O  0.50390630  0.19389348  0.35987472    -0.80000
O11         O  0.46703669  0.06733296  0.48185975    -0.64700
O12         O  0.49288705  0.15866476  0.43897789    -1.11300
C13         C  0.63864834  0.11512334  0.52220113     1.06900
O14         O  0.52631831  0.06427560  0.55905408    -0.77900
O15         O  0.57201789  0.12609650  0.58195010    -0.65500
Ni16       Ni  0.45671644  0.17345722  0.36759885     1.34900
C17         C  0.57590613  0.15942740  0.57213379     0.85600
O18         O  0.42025179  0.12666083  0.43931243    -0.78400
O19         O  0.40357832  0.15669089  0.36549015    -0.88700
C20         C  0.48687149  0.05618743  0.52846426     0.85200
O21         O  0.46303999  0.12837994  0.33826981    -0.66900
O22         O  0.62724542  0.09591607  0.55000569    -0.86200
C23         C  0.45862636  0.09572140  0.35050428     0.86000
C24         C  0.39260927  0.14106247  0.39640639     1.07600
H25         H  0.53905236  0.08162071  0.45644237     0.39400
O26         O  0.53833364  0.10005671  0.47982583    -1.08900
O27         O  0.57085229  0.17008700  0.52782905    -0.65500
Ni28       Ni  0.55265199  0.14656531  0.46062166     1.26300
O29         O  0.46076610  0.08780036  0.39403904    -0.65700
O30         O  0.61192039  0.13341744  0.48242939    -0.78000
C31         C  0.54279506  0.20394376  0.39002933     0.85400
O32         O  0.56398334  0.19255671  0.43691757    -0.65200
Ni33       Ni  0.57398571  0.08169714  0.54936540     1.27400
Ni34       Ni  0.47906569  0.11277166  0.45951404     1.26100
H35         H  0.49142629  0.17783728  0.46101451     0.40000
C36         C  0.13792557  0.17163854  0.25631578     0.04000
C37         C  0.11443860  0.15156822  0.27510622    -0.12100
C38         C  0.13616875  0.12866748  0.31889762     0.01500
C39         C  0.18198623  0.12518397  0.34285147    -0.10600
C40         C  0.20577038  0.14488326  0.32344868     0.04000
C41         C  0.18335170  0.16869481  0.28082417    -0.10100
H42         H  0.07916842  0.15355679  0.25529932     0.09600
H43         H  0.19889136  0.10672068  0.37575217     0.07100
H44         H  0.20123975  0.18427480  0.26570699     0.07000
C45         C  0.62959937  0.34014363  0.24110761     0.04000
C46         C  0.60610289  0.32097216  0.26120317    -0.12100
C47         C  0.62777201  0.29617418  0.30297729     0.01500
C48         C  0.67285379  0.29049200  0.32435864    -0.10600
C49         C  0.69666417  0.30972774  0.30491439     0.04000
C50         C  0.67474956  0.33442243  0.26333371    -0.10100
H51         H  0.57128594  0.32535050  0.24461137     0.09600
H52         H  0.68930257  0.27087513  0.35590552     0.07100
H53         H  0.69302463  0.34951373  0.24828567     0.07000
O54         O  0.99930508  0.02886754  0.35617369    -0.80000
O55         O  0.96615883  0.23914156  0.48254217    -0.64700
O56         O  0.98105013  0.33142758  0.43233119    -1.11300
C57         C  0.13119851  0.29665632  0.52405707     1.06900
O58         O  0.02026645  0.24967292  0.56203350    -0.77900
O59         O  0.07583203  0.97339142  0.58569362    -0.65500
Ni60       Ni  0.94882321  0.34441000  0.36041955     1.34900
C61         C  0.06455220  0.00651022  0.57161652     0.85600
O62         O  0.91077240  0.29265232  0.42738471    -0.78400
O63         O  0.89504783  0.32862462  0.35767921    -0.88700
C64         C  0.98443097  0.23417217  0.53135381     0.85200
O65         O  0.95360575  0.29837102  0.33239327    -0.66900
O66         O  0.12038401  0.27043881  0.54448819    -0.86200
C67         C  0.95451351  0.26563005  0.34810714     0.86000
C68         C  0.88375780  0.30905013  0.38555804     1.07600
H69         H  0.03762915  0.26130610  0.45853179     0.39400
O70         O  0.03312696  0.27854405  0.48092224    -1.08900
O71         O  0.04846650  0.01669560  0.52428163    -0.65500
Ni72       Ni  0.04257632  0.32629701  0.46215670     1.26300
O73         O  0.96100447  0.25799410  0.39366235    -0.65700
O74         O  0.10461437  0.32054941  0.49303385    -0.78000
C75         C  0.03371997  0.04491747  0.38988218     0.85400
O76         O  0.04856235  0.04004199  0.43832959    -0.65200
Ni77       Ni  0.06878156  0.26101145  0.55011084     1.27400
Ni78       Ni  0.97205766  0.28490138  0.45515923     1.26100
H79         H  0.97442837  0.01682110  0.45109063     0.40000
C80         C  0.38301228  0.26843418  0.66783221     0.04000
C81         C  0.33794981  0.27436098  0.64494373    -0.12100
C82         C  0.31670683  0.29797538  0.60206207     0.01500
C83         C  0.34075716  0.98298686  0.58227373    -0.10600
C84         C  0.38596181  0.97743469  0.60528836     0.04000
C85         C  0.40702508  0.95348092  0.64803355    -0.10100
H86         H  0.31920560  0.26003367  0.66003440     0.09600
H87         H  0.32445958  0.00138467  0.54914967     0.07100
H88         H  0.44189192  0.94896629  0.66549610     0.07000
C89         C  0.88584010  0.16290606  0.17757526     0.04000
C90         C  0.90855420  0.14036154  0.16002551    -0.12100
C91         C  0.88623453  0.12203353  0.11247976     0.01500
C92         C  0.84093541  0.12545239  0.08256839    -0.10600
C93         C  0.81740864  0.14645129  0.10096808     0.04000
C94         C  0.84021843  0.16538588  0.14841978    -0.10100
H95         H  0.94369663  0.13772419  0.18272371     0.09600
H96         H  0.82407639  0.11147169  0.04536497     0.07100
H97         H  0.82247810  0.18213556  0.16272390     0.07000
O98         O  0.51733630  0.20512767  0.04732006    -0.80000
O99         O  0.55795540  0.07239779  0.93465027    -0.64700
O100        O  0.52940800  0.16638367  0.97042668    -1.11300
C101        C  0.38612315  0.12120250  0.89443668     1.06900
O102        O  0.49781164  0.06847700  0.85810168    -0.77900
O103        O  0.45279214  0.13117134  0.83196354    -0.65500
Ni104      Ni  0.56502497  0.18638790  0.03883643     1.34900
C105        C  0.44677312  0.16443707  0.84008489     0.85600
O106        O  0.60326742  0.13314373  0.97367144    -0.78400
O107        O  0.61831794  0.17130553  0.04020321    -0.88700
C108        C  0.53739052  0.06025888  0.88833308     0.85200
O109        O  0.56371016  0.14327870  0.07459199    -0.66900
O110        O  0.39702794  0.10334255  0.86499497    -0.86600
C111        C  0.56844277  0.10959823  0.06700364     0.86000
C112        C  0.62976108  0.15213419  0.01236115     1.07600
H113        H  0.48591195  0.08860179  0.95963543     0.39400
O114        O  0.48623193  0.10639247  0.93546887    -1.08900
O115        O  0.45004071  0.17523526  0.88331739    -0.65500
Ni116      Ni  0.47082572  0.15335019  0.95189125     1.26300
O117        O  0.56469564  0.09777290  0.02380128    -0.65700
O118        O  0.41317551  0.13885279  0.93426844    -0.78000
C119        C  0.47761456  0.21255899  0.01673876     0.85400
O120        O  0.45752283  0.19984590  0.97098891    -0.65200
Ni121      Ni  0.45028379  0.08767725  0.86639190     1.27400
Ni122      Ni  0.54507567  0.11912442  0.95474138     1.26100
H123        H  0.52933730  0.18393447  0.94556837     0.40000
C124        C  0.12888409  0.10820832  0.74391353     0.04000
C125        C  0.17434521  0.10979105  0.76693640    -0.12100
C126        C  0.19894683  0.12736973  0.81513374     0.01500
C127        C  0.17695305  0.14513514  0.83851923    -0.10600
C128        C  0.13116211  0.14532935  0.81391385     0.04000
C129        C  0.10725202  0.12635733  0.76699359    -0.10100
H130        H  0.19066403  0.09597219  0.74818356     0.09600
H131        H  0.19526047  0.15868070  0.87584185     0.07100
H132        H  0.07198238  0.12550598  0.74869453     0.07000
C133        C  0.63339052  0.26329133  0.74367476     0.04000
C134        C  0.67841700  0.26902131  0.76736133    -0.12100
C135        C  0.69883924  0.29402564  0.80842630     0.01500
C136        C  0.67371624  0.97986860  0.82640045    -0.10600
C137        C  0.62855366  0.97411740  0.80327674     0.04000
C138        C  0.60833285  0.94918025  0.76170418    -0.10100
H139        H  0.69774876  0.25383939  0.75368584     0.09600
H140        H  0.68922328  0.99936956  0.85809917     0.07100
H141        H  0.57349386  0.94472202  0.74373675     0.07000
C142        C  0.38562950  0.33747507  0.16727323     0.04000
C143        C  0.33989579  0.33912343  0.13955028    -0.12100
C144        C  0.31656232  0.31961817  0.09286150     0.01500
C145        C  0.33929699  0.29973440  0.07237690    -0.10600
C146        C  0.38497419  0.29838478  0.09929830     0.04000
C147        C  0.40796308  0.31676028  0.14699152    -0.10100
H148        H  0.32229051  0.35473883  0.15516882     0.09600
H149        H  0.32150093  0.28466362  0.03622087     0.07100
H150        H  0.44320248  0.31465446  0.16840030     0.07000
O151        O  0.01992420  0.02346238  0.06665018    -0.80000
O152        O  0.05509808  0.23582770  0.94627849    -0.64700
O153        O  0.03296938  0.32953966  0.98527228    -1.11300
C154        C  0.88601986  0.29482890  0.89187585     1.06900
O155        O  0.00346418  0.24366924  0.86402577    -0.77900
O156        O  0.95814588  0.97418474  0.84013554    -0.65500
Ni157      Ni  0.06824039  0.34876001  0.05330221     1.34900
C158        C  0.95665199  0.00689937  0.85449428     0.85600
O159        O  0.10677768  0.29165394  0.99674610    -0.78400
O160        O  0.11932776  0.34280838  0.04517458    -0.88700
C161        C  0.03910415  0.22923416  0.89808876     0.85200
O162        O  0.08096894  0.30373321  0.09139923    -0.66900
O163        O  0.89835219  0.27719090  0.86339736    -0.86200
C164        C  0.07119295  0.27028121  0.07888848     0.86000
C165        C  0.13163553  0.31739163  0.02484786     1.07600
H166        H  0.97959196  0.25522678  0.95878270     0.39400
O167        O  0.98458945  0.27448136  0.93938510    -1.08900
O168        O  0.95944097  0.01421429  0.89847724    -0.65500
Ni169      Ni  0.97273227  0.32046426  0.96103879     1.26300
O170        O  0.05444025  0.25933428  0.03183782    -0.65700
O171        O  0.91224764  0.31020746  0.93472832    -0.78000
C172        C  0.98295243  0.03758255  0.03602160     0.85400
O173        O  0.96439302  0.03226750  0.98735198    -0.65200
Ni174      Ni  0.95271305  0.26155340  0.86748737     1.27400
Ni175      Ni  0.04560720  0.28249412  0.96804921     1.26100
H176        H  0.03580549  0.01350915  0.96179788     0.40000
C177        C  0.26822750  0.31801524  0.06814043    -0.04400
C178        C  0.24767479  0.28462942  0.06818708    -0.01600
C179        C  0.20276414  0.28420047  0.05256975     0.03400
C180        C  0.17783648  0.31711149  0.03594707    -0.04400
C181        C  0.19789126  0.34993951  0.03237456    -0.01500
C182        C  0.24297547  0.35040729  0.04875016     0.03400
C183        C  0.27307489  0.25087514  0.08641588     0.38100
C184        C  0.17212865  0.04979496  0.01087418     0.38100
C185        C  0.26361797  0.05091659  0.04571095     0.36500
C186        C  0.18300895  0.25013261  0.05659160     0.36500
N187        N  0.28013936  0.07784803  0.04330626    -0.38300
N188        N  0.16751320  0.22287727  0.05995089    -0.38300
N189        N  0.15154387  0.07625290  0.99360154    -0.37800
N190        N  0.29322978  0.22390733  0.10060696    -0.37800
C191        C  0.74681923  0.29909477  0.83242459    -0.04400
C192        C  0.76511435  0.97781382  0.80146231    -0.01600
C193        C  0.81062600  0.97698905  0.82123525     0.03400
C194        C  0.83839227  0.29815097  0.87273412    -0.04400
C195        C  0.82019957  0.28830922  0.90495553    -0.01500
C196        C  0.77452915  0.28850745  0.88473716     0.03400
C197        C  0.73698758  0.99127899  0.74890162     0.38100
C198        C  0.84825020  0.27612153  0.95810819     0.38100
C199        C  0.75604473  0.27614736  0.91710375     0.36500
C200        C  0.82878632  0.98886552  0.78823411     0.36500
N201        N  0.74126582  0.26635857  0.94291463    -0.38300
N202        N  0.84306584  0.99816989  0.76168171    -0.38300
N203        N  0.87057401  0.26645864  0.00055642    -0.37800
N204        N  0.71451093  0.00203152  0.70705573    -0.37800
C205        C  0.10808993  0.16638172  0.83669088    -0.04400
C206        C  0.08373892  0.14800296  0.85671246    -0.01600
C207        C  0.06155310  0.16850880  0.87774347     0.03400
C208        C  0.06453148  0.20722321  0.87985791    -0.04400
C209        C  0.08948489  0.22549125  0.86076655    -0.01500
C210        C  0.10977182  0.20522163  0.83736746     0.03400
C211        C  0.08074305  0.10812505  0.85477461     0.38100
C212        C  0.09480015  0.26517229  0.86584547     0.38100
C213        C  0.12935744  0.22448817  0.81038100     0.36500
C214        C  0.03510579  0.14982988  0.89632631     0.36500
N215        N  0.14377858  0.24009305  0.78770448    -0.38300
N216        N  0.01394067  0.13464865  0.91084394    -0.38300
N217        N  0.09972675  0.29671855  0.87062452    -0.37800
N218        N  0.07791545  0.07634750  0.85306080    -0.37800
C219        C  0.33921143  0.12242254  0.87994225    -0.04400
C220        C  0.31439946  0.08976251  0.86625489    -0.01600
C221        C  0.26913003  0.09132136  0.84832335     0.03400
C222        C  0.24765173  0.12573932  0.84121905    -0.04400
C223        C  0.27281416  0.15832114  0.85654155    -0.01500
C224        C  0.31836100  0.15660330  0.87625821     0.03400
C225        C  0.33531628  0.05437207  0.87020416     0.38100
C226        C  0.25221078  0.19407397  0.85029963     0.38100
C227        C  0.34316917  0.19054416  0.88943995     0.36500
C228        C  0.24480882  0.05723060  0.83783249     0.36500
N229        N  0.36245625  0.21782880  0.89960513    -0.38300
N230        N  0.22547574  0.03003132  0.82938580    -0.38300
N231        N  0.23710687  0.22309179  0.84633764    -0.37800
N232        N  0.35181351  0.02615924  0.87279568    -0.37800
C233        C  0.60271473  0.99465157  0.82308759    -0.04400
C234        C  0.60194319  0.98256781  0.86852783    -0.01600
C235        C  0.58117656  0.00408516  0.89058974     0.03400
C236        C  0.56012635  0.03740462  0.86643184    -0.04400
C237        C  0.55886165  0.04831255  0.81909931    -0.01500
C238        C  0.58050649  0.02720415  0.79792256     0.03400
C239        C  0.62176422  0.28077629  0.89145858     0.38100
C240        C  0.53579839  0.08161828  0.79228395     0.38100
C241        C  0.58032552  0.03917245  0.75042591     0.36500
C242        C  0.57988017  0.99116700  0.93675138     0.36500
N243        N  0.58016261  0.04876910  0.71257563    -0.38300
N244        N  0.57921795  0.31420882  0.97381369    -0.38300
N245        N  0.51714811  0.10797462  0.77057275    -0.37800
N246        N  0.63702231  0.25232142  0.90844446    -0.37800
C247        C  0.45365105  0.23478535  0.03722572    -0.04400
C248        C  0.43255394  0.26795692  0.01262014    -0.01600
C249        C  0.41041395  0.28893978  0.03328726     0.03400
C250        C  0.40890073  0.27665322  0.07818721    -0.04400
C251        C  0.43012544  0.24362020  0.10294276    -0.01500
C252        C  0.45237066  0.22267798  0.08250037     0.03400
C253        C  0.43450301  0.28105192  0.96692975     0.38100
C254        C  0.42833984  0.23091597  0.14896456     0.38100
C255        C  0.47268708  0.18796264  0.10711979     0.36500
C256        C  0.39024027  0.32381069  0.00947174     0.36500
N257        N  0.48880123  0.16025116  0.12659837    -0.38300
N258        N  0.37418355  0.35178005  0.99113730    -0.38300
N259        N  0.42671388  0.22108568  0.18564910    -0.37800
N260        N  0.43571765  0.29172001  0.93034716    -0.37800
C261        C  0.76881176  0.14782816  0.07178297    -0.04400
C262        C  0.74437908  0.11490896  0.06027474    -0.01600
C263        C  0.69857248  0.11638691  0.03757337     0.03400
C264        C  0.67686144  0.15076177  0.02799754    -0.04400
C265        C  0.70112907  0.18363391  0.03836880    -0.01500
C266        C  0.74669950  0.18212730  0.05852084     0.03400
C267        C  0.76630007  0.07937075  0.07430475     0.38100
C268        C  0.67943468  0.21914653  0.02955397     0.38100
C269        C  0.77079510  0.21595606  0.06523472     0.36500
C270        C  0.67421797  0.08234813  0.02763801     0.36500
N271        N  0.79003121  0.24288922  0.07046803    -0.38300
N272        N  0.65502367  0.05512146  0.01987589    -0.38300
N273        N  0.66233522  0.24749595  0.02338103    -0.37800
N274        N  0.78362288  0.05097706  0.08529388    -0.37800
C275        C  0.91102241  0.10023150  0.09318053    -0.04400
C276        C  0.91974246  0.06266484  0.10649373    -0.01600
C277        C  0.94414502  0.04211735  0.08861122     0.03400
C278        C  0.95978658  0.05930293  0.05753521    -0.04400
C279        C  0.95120211  0.09694529  0.04460573    -0.01500
C280        C  0.92690920  0.11742664  0.06253171     0.03400
C281        C  0.90333434  0.37865431  0.13857692     0.38100
C282        C  0.96783977  0.11476366  0.01341556     0.38100
C283        C  0.91817187  0.15620756  0.04942420     0.36500
C284        C  0.95162085  0.33640426  0.10084011     0.36500
N285        N  0.91120283  0.18711805  0.03889646    -0.38300
N286        N  0.95735161  0.30526390  0.11034859    -0.38300
N287        N  0.98102470  0.12919649  0.98859508    -0.37800
N288        N  0.89018547  0.36486950  0.16390869    -0.37800
C289        C  0.40395854  0.24160172  0.71138581    -0.04400
C290        C  0.39258551  0.20413953  0.70198369    -0.01600
C291        C  0.40592424  0.17930153  0.74391904     0.03400
C292        C  0.43341176  0.19116285  0.79595401    -0.04400
C293        C  0.44692211  0.22849072  0.80483160    -0.01500
C294        C  0.43190297  0.25362203  0.76268070     0.03400
C295        C  0.36708936  0.19109977  0.64872498     0.38100
C296        C  0.47642048  0.24134535  0.85703663     0.38100
C297        C  0.44454738  0.29206227  0.77213636     0.36500
C298        C  0.38854744  0.14216580  0.73310495     0.36500
N299        N  0.45470987  0.32269634  0.77951883    -0.38300
N300        N  0.37431736  0.11270806  0.72448840    -0.38300
N301        N  0.49994329  0.25200508  0.89846973    -0.37800
N302        N  0.34710058  0.18071899  0.60627122    -0.37800
C303        C  0.17784685  0.30053099  0.53964799    -0.04400
C304        C  0.19642862  0.28088970  0.51349999    -0.01600
C305        C  0.24168382  0.28267183  0.53147785     0.03400
C306        C  0.26874192  0.30216848  0.57751823    -0.04400
C307        C  0.25003590  0.98925648  0.60316326    -0.01500
C308        C  0.20452038  0.98935798  0.58331385     0.03400
C309        C  0.16933756  0.25783685  0.46935127     0.38100
C310        C  0.27778803  0.00929944  0.65056996     0.38100
C311        C  0.18532949  0.01161828  0.60834339     0.36500
C312        C  0.26069749  0.26384343  0.50341081     0.36500
N313        N  0.17051120  0.02979918  0.62844980    -0.38300
N314        N  0.27619927  0.24945122  0.48092358    -0.38300
N315        N  0.29992331  0.02504802  0.68860201    -0.37800
N316        N  0.14804467  0.23905666  0.43439806    -0.37800
C317        C  0.07264302  0.03440942  0.61329740    -0.04400
C318        C  0.08058075  0.02258361  0.66365124    -0.01600
C319        C  0.09759693  0.04724346  0.70590333     0.03400
C320        C  0.10470012  0.08425524  0.69817299    -0.04400
C321        C  0.09212306  0.09736337  0.64768463    -0.01500
C322        C  0.07673545  0.07263049  0.60535767     0.03400
C323        C  0.07210921  0.98498829  0.67319168     0.38100
C324        C  0.09625768  0.13631969  0.63974427     0.38100
C325        C  0.06786562  0.08689551  0.55485725     0.36500
C326        C  0.10963376  0.03414758  0.75809889     0.36500
N327        N  0.06124690  0.09882820  0.51499499    -0.38300
N328        N  0.11950442  0.02362742  0.79969872    -0.38300
N329        N  0.09930477  0.16741297  0.63343250    -0.37800
N330        N  0.06658251  0.28805505  0.68167672    -0.37800
C331        C  0.90970543  0.18502253  0.22573822    -0.04400
C332        C  0.93960817  0.21223060  0.22879784    -0.01600
C333        C  0.95668048  0.23724297  0.27068187     0.03400
C334        C  0.94426218  0.23506061  0.31012134    -0.04400
C335        C  0.91738279  0.20554789  0.30925578    -0.01500
C336        C  0.90037096  0.18066361  0.26726347     0.03400
C337        C  0.95165384  0.21564347  0.18786359     0.38100
C338        C  0.90418424  0.20195818  0.34919232     0.38100
C339        C  0.87248688  0.15080832  0.26629586     0.36500
C340        C  0.98610154  0.26580168  0.27199399     0.36500
N341        N  0.85016425  0.12709194  0.26544016    -0.38300
N342        N  0.00909150  0.28864902  0.27209884    -0.38300
N343        N  0.89340142  0.19894565  0.38075428    -0.37800
N344        N  0.96186650  0.21835507  0.15577272    -0.37800
C345        C  0.74478400  0.30465638  0.32789034    -0.04400
C346        C  0.77305531  0.31307319  0.38092574    -0.01600
C347        C  0.81868017  0.31273081  0.40063586     0.03400
C348        C  0.83633826  0.30488887  0.36719680    -0.04400
C349        C  0.80824788  0.29390872  0.31522000    -0.01500
C350        C  0.76274249  0.29350552  0.29581927     0.03400
C351        C  0.75538806  0.32362637  0.41493327     0.38100
C352        C  0.82613687  0.28222999  0.28179630     0.38100
C353        C  0.73435845  0.28116933  0.24287034     0.36500
C354        C  0.84726773  0.98857617  0.45506122     0.36500
N355        N  0.71173708  0.27128733  0.20070161    -0.38300
N356        N  0.87009043  0.99556977  0.49844769    -0.38300
N357        N  0.84012708  0.27283528  0.25492913    -0.37800
N358        N  0.74149654  0.99872499  0.44249093    -0.37800
C359        C  0.60822174  0.36722444  0.19752347    -0.04400
C360        C  0.57894544  0.02210242  0.14631046    -0.01600
C361        C  0.56543398  0.04670233  0.10367824     0.03400
C362        C  0.58043908  0.08358513  0.11187064    -0.04400
C363        C  0.60748431  0.09574728  0.16398505    -0.01500
C364        C  0.62085515  0.07104922  0.20622051     0.03400
C365        C  0.56318577  0.31797313  0.13721380     0.38100
C366        C  0.62360486  0.13329542  0.17489695     0.38100
C367        C  0.64844069  0.41735284  0.25923655     0.36500
C368        C  0.53581065  0.03371894  0.05156845     0.36500
N369        N  0.67024441  0.42759625  0.30142106    -0.38300
N370        N  0.51229276  0.02282297  0.01027509    -0.38300
N371        N  0.63643582  0.16319652  0.18390587    -0.37800
N372        N  0.54978975  0.28825092  0.12901914    -0.37800
C373        C  0.08136287  0.24311644  0.12204497    -0.04400
C374        C  0.08646868  0.25544722  0.17098005    -0.01600
C375        C  0.10469626  0.23192657  0.21475445     0.03400
C376        C  0.11496735  0.19524744  0.20957330    -0.04400
C377        C  0.10509124  0.18144263  0.16016785    -0.01500
C378        C  0.08919988  0.20526085  0.11666540     0.03400
C379        C  0.07264820  0.29210596  0.17699687     0.38100
C380        C  0.11177917  0.14258296  0.15434816     0.38100
C381        C  0.08267238  0.19038106  0.06739382     0.36500
C382        C  0.11439555  0.24578232  0.26576383     0.36500
N383        N  0.07778863  0.17782320  0.02856815    -0.38300
N384        N  0.12265239  0.25678755  0.30660843    -0.38300
N385        N  0.11660905  0.11153590  0.14955011    -0.37800
N386        N  0.06172985  0.32120297  0.18239162    -0.37800
C387        C  0.11026119  0.10731182  0.33796376    -0.04400
C388        C  0.08220239  0.12567896  0.35305907    -0.01600
C389        C  0.05666695  0.10529240  0.36940903     0.03400
C390        C  0.05970554  0.06660037  0.37199961    -0.04400
C391        C  0.08771407  0.04821889  0.35726533    -0.01500
C392        C  0.11188993  0.06837189  0.33879421     0.03400
C393        C  0.07881826  0.16555274  0.35103275     0.38100
C394        C  0.09231694  0.34183357  0.36214038     0.38100
C395        C  0.13627965  0.04891263  0.31769048     0.36500
C396        C  0.02652455  0.12412225  0.38243360     0.36500
N397        N  0.15525590  0.03343103  0.30020365    -0.38300
N398        N  0.00228192  0.13940814  0.39224545    -0.38300
N399        N  0.09605971  0.31017796  0.36679409    -0.37800
N400        N  0.07523648  0.19729714  0.34876540    -0.37800
C401        C  0.34515422  0.13885144  0.38012350    -0.04400
C402        C  0.31540599  0.12736041  0.32893273    -0.01600
C403        C  0.27021804  0.12753417  0.31169643     0.03400
C404        C  0.25386395  0.13969101  0.34498123    -0.04400
C405        C  0.28359142  0.14918540  0.39707528    -0.01500
C406        C  0.32905045  0.14875299  0.41460598     0.03400
C407        C  0.33106119  0.11483221  0.29365393     0.38100
C408        C  0.26739750  0.16021686  0.43233200     0.38100
C409        C  0.35906042  0.15996382  0.46751393     0.36500
C410        C  0.24048345  0.11468374  0.25948567     0.36500
N411        N  0.38310881  0.16876973  0.50976426    -0.38300
N412        N  0.21706207  0.10439166  0.21781712    -0.38300
N413        N  0.25430095  0.16854689  0.46048778    -0.37800
N414        N  0.34298020  0.10494805  0.26497384    -0.37800
C415        C  0.58841784  0.18633536  0.61588576    -0.04400
C416        C  0.61476333  0.17441008  0.66841296    -0.01600
C417        C  0.62575820  0.19900281  0.71007067     0.03400
C418        C  0.61364594  0.23641432  0.70019341    -0.04400
C419        C  0.58779926  0.24864618  0.64835085    -0.01500
C420        C  0.57467269  0.22367448  0.60639337     0.03400
C421        C  0.63339509  0.13749379  0.68033976     0.38100
C422        C  0.57595603  0.28729021  0.63805692     0.38100
C423        C  0.54714397  0.23674332  0.55363361     0.36500
C424        C  0.65007334  0.18580688  0.76352539     0.36500
N425        N  0.52528114  0.24724038  0.51151888    -0.38300
N426        N  0.66920965  0.17516348  0.80603414    -0.38300
N427        N  0.56681771  0.98471113  0.62987653    -0.37800
N428        N  0.64852673  0.10821295  0.68995897    -0.37800
C429        C  0.40972673  0.35664661  0.21839408    -0.04400
C430        C  0.44322479  0.38196078  0.22742638    -0.01600
C431        C  0.46410913  0.06775581  0.27519822     0.03400
C432        C  0.44742137  0.06625199  0.31056725    -0.04400
C433        C  0.41612178  0.03903595  0.30337879    -0.01500
C434        C  0.39874509  0.01666897  0.25849783     0.03400
C435        C  0.45471008  0.39007668  0.18693713     0.38100
C436        C  0.40002442  0.03484082  0.34051866     0.38100
C437        C  0.36937950  0.32027120  0.25328059     0.36500
C438        C  0.50487698  0.08642818  0.28987323     0.36500
N439        N  0.34609930  0.29645365  0.24925754    -0.38300
N440        N  0.53846715  0.09975810  0.30259272    -0.38300
N441        N  0.38687244  0.03155034  0.36983868    -0.37800
N442        N  0.46356177  0.39686130  0.15447053    -0.37800
C443        C  0.41170425  0.99740618  0.58533899    -0.04400
C444        C  0.43167737  0.03098773  0.60844960    -0.01600
C445        C  0.45710652  0.04975947  0.59055158     0.03400
C446        C  0.46234138  0.03510987  0.54904974    -0.04400
C447        C  0.44224551  0.00149823  0.52587033    -0.01500
C448        C  0.41675467  0.98277328  0.54383250     0.03400
C449        C  0.42512145  0.04658694  0.64988068     0.38100
C450        C  0.44875601  0.98572946  0.48451896     0.38100
C451        C  0.39488886  0.28204855  0.51869738     0.36500
C452        C  0.47672178  0.08476203  0.61382366     0.36500
N453        N  0.37732183  0.25508839  0.49866654    -0.38300
N454        N  0.49235750  0.11265250  0.63243434    -0.38300
N455        N  0.45373429  0.30639686  0.45109817    -0.37800
N456        N  0.41959221  0.05897075  0.68272472    -0.37800
C457        C  0.60338719  0.27458840  0.32363129    -0.04400
C458        C  0.57875096  0.24400422  0.29574567    -0.01600
C459        C  0.55775463  0.22199354  0.31658629     0.03400
C460        C  0.56379870  0.22868053  0.36760678    -0.04400
C461        C  0.58824120  0.25984244  0.39521699    -0.01500
C462        C  0.60666153  0.28330736  0.37239887     0.03400
C463        C  0.57573924  0.23459441  0.24583128     0.38100
C464        C  0.59295453  0.26893063  0.44594391     0.38100
C465        C  0.62721821  0.31751996  0.39752793     0.36500
C466        C  0.52953052  0.19281874  0.28435727     0.36500
N467        N  0.64282872  0.34541038  0.41606763    -0.38300
N468        N  0.50621877  0.17059158  0.25691839    -0.38300
N469        N  0.59709004  0.27661812  0.48649250    -0.37800
N470        N  0.57348291  0.22663551  0.20628170    -0.37800
C471        C  0.77757025  0.12257804  0.58023527    -0.04400
C472        C  0.75241054  0.15473339  0.57337241    -0.01600
C473        C  0.70679198  0.15231457  0.55255305     0.03400
C474        C  0.68596985  0.11766274  0.53913566    -0.04400
C475        C  0.71120431  0.08548621  0.54657600    -0.01500
C476        C  0.75661798  0.08801886  0.56577822     0.03400
C477        C  0.77373584  0.19009220  0.59082244     0.38100
C478        C  0.69077819  0.04957721  0.53642755     0.38100
C479        C  0.78191679  0.05492679  0.57108589     0.36500
C480        C  0.68183668  0.18521422  0.54927474     0.36500
N481        N  0.80217001  0.02858476  0.57539275    -0.38300
N482        N  0.66213330  0.21142128  0.54731254    -0.38300
N483        N  0.67476545  0.02084705  0.52945068    -0.37800
N484        N  0.79079408  0.21823671  0.60494230    -0.37800
C485        C  0.91961752  0.08856491  0.73324987    -0.04400
C486        C  0.91017215  0.09465346  0.77443070    -0.01600
C487        C  0.92453035  0.06934389  0.81605232     0.03400
C488        C  0.94901566  0.03767062  0.81698126    -0.04400
C489        C  0.96247096  0.03415326  0.77841462    -0.01500
C490        C  0.94779852  0.05947958  0.73680361     0.03400
C491        C  0.88427025  0.12650867  0.77295679     0.38100
C492        C  0.99007681  0.00374868  0.77974228     0.38100
C493        C  0.95978141  0.05417436  0.69604054     0.36500
C494        C  0.91100212  0.07504465  0.85538298     0.36500
N495        N  0.96965867  0.04992241  0.66385724    -0.38300
N496        N  0.89991986  0.07984279  0.88641133    -0.38300
N497        N  0.01142408  0.97939538  0.77947160    -0.37800
N498        N  0.86348729  0.15181424  0.77161023    -0.37800
C499        C  0.91750082  0.16972431  0.59392024    -0.04400
C500        C  0.92639306  0.20717326  0.60747840    -0.01600
C501        C  0.94866777  0.22820567  0.58733250     0.03400
C502        C  0.96201050  0.21181027  0.55342052    -0.04400
C503        C  0.95311974  0.17429092  0.53997630    -0.01500
C504        C  0.93146726  0.15312406  0.56082323     0.03400
C505        C  0.91251771  0.22400166  0.64216242     0.38100
C506        C  0.96644407  0.15738142  0.50493554     0.38100
C507        C  0.92407729  0.11415970  0.54884105     0.36500
C508        C  0.95617878  0.26709862  0.59975993     0.36500
N509        N  0.91847300  0.08304728  0.53946697    -0.38300
N510        N  0.96190377  0.29815652  0.60947614    -0.38300
N511        N  0.97665910  0.14384044  0.47661157    -0.37800
N512        N  0.90148671  0.23731961  0.66991694    -0.37800
C513        C  0.89557495  0.44296593  0.68396731     0.04000
C514        C  0.85002354  0.44035819  0.65601993    -0.12100
C515        C  0.82618486  0.45810677  0.60781197     0.01500
C516        C  0.84848128  0.47841516  0.58721704    -0.10600
C517        C  0.89406880  0.48132263  0.61519748     0.04000
C518        C  0.91747723  0.46389962  0.66367539    -0.10100
H519        H  0.83300888  0.42435242  0.67189434     0.09600
H520        H  0.83046282  0.49216323  0.54986223     0.07100
H521        H  0.95265356  0.46635476  0.68526141     0.07000
O522        O  0.50394007  0.52720362  0.35992159    -0.80000
O523        O  0.46712144  0.40051355  0.48175443    -0.64700
O524        O  0.49292178  0.49191783  0.43899795    -1.11300
C525        C  0.63873467  0.44852321  0.52228793     1.06900
O526        O  0.52640131  0.39741360  0.55894810    -0.77900
O527        O  0.57193541  0.45934520  0.58192327    -0.65500
Ni528      Ni  0.45674727  0.50674545  0.36762884     1.34900
C529        C  0.57586756  0.49267933  0.57215837     0.85600
O530        O  0.42028926  0.45982807  0.43925650    -0.78400
O531        O  0.40360261  0.48995289  0.36549618    -0.88700
C532        C  0.48695592  0.38932651  0.52833778     0.85200
O533        O  0.46306226  0.46169967  0.33823382    -0.66900
O534        O  0.62733543  0.42932911  0.55010834    -0.86200
C535        C  0.45868210  0.42902612  0.35044397     0.86000
C536        C  0.39263986  0.47427010  0.39638397     1.07600
H537        H  0.53916821  0.41490388  0.45643339     0.39400
O538        O  0.53841860  0.43332548  0.47981499    -1.08900
O539        O  0.57088195  0.50335213  0.52788670    -0.65500
Ni540      Ni  0.55270325  0.47986549  0.46065316     1.26300
O541        O  0.46086881  0.42106125  0.39398852    -0.65700
O542        O  0.61198769  0.46676104  0.48246306    -0.78000
C543        C  0.54282058  0.53726867  0.39009145     0.85400
O544        O  0.56399908  0.52588640  0.43698332    -0.65200
Ni545      Ni  0.57406896  0.41497878  0.54936409     1.27400
Ni546      Ni  0.47912751  0.44598972  0.45947771     1.26100
H547        H  0.49144151  0.51106590  0.46105246     0.40000
C548        C  0.13796402  0.50502627  0.25639015     0.04000
C549        C  0.11447763  0.48498510  0.27520947    -0.12100
C550        C  0.13620423  0.46208358  0.31899940     0.01500
C551        C  0.18201995  0.45858349  0.34294008    -0.10600
C552        C  0.20580601  0.47824440  0.32350614     0.04000
C553        C  0.18338964  0.50204629  0.28086539    -0.10100
H554        H  0.07920844  0.48698529  0.25541106     0.09600
H555        H  0.19892122  0.44012056  0.37584220     0.07100
H556        H  0.20127718  0.51759208  0.26571541     0.07000
C557        C  0.62960012  0.67353249  0.24124110     0.04000
C558        C  0.60612951  0.65430980  0.26132560    -0.12100
C559        C  0.62783886  0.62953467  0.30312153     0.01500
C560        C  0.67293331  0.62392016  0.32453084    -0.10600
C561        C  0.69672079  0.64320899  0.30510318     0.04000
C562        C  0.67476649  0.66788674  0.26350790    -0.10100
H563        H  0.57130230  0.65863435  0.24471368     0.09600
H564        H  0.68940836  0.60431232  0.35608357     0.07100
H565        H  0.69302247  0.68302035  0.24847269     0.07000
O566        O  0.99938708  0.36214355  0.35615687    -0.80000
O567        O  0.96618065  0.57266054  0.48266465    -0.64700
O568        O  0.98115368  0.66494543  0.43252400    -1.11300
C569        C  0.13126629  0.63004818  0.52417118     1.06900
O570        O  0.02031416  0.58314317  0.56215469    -0.77900
O571        O  0.07595774  0.30654002  0.58561295    -0.65500
Ni572      Ni  0.94889538  0.67797993  0.36063429     1.34900
C573        C  0.06467095  0.33966870  0.57160309     0.85600
O574        O  0.91084287  0.62621448  0.42758389    -0.78400
O575        O  0.89512511  0.66224832  0.35793980    -0.88700
C576        C  0.98446294  0.56766923  0.53147163     0.85200
O577        O  0.95357826  0.63194491  0.33252441    -0.66900
O578        O  0.12043174  0.60384222  0.54459719    -0.86200
C579        C  0.95450354  0.59919969  0.34823319     0.86000
C580        C  0.88383163  0.64265054  0.38579294     1.07600
H581        H  0.03765089  0.59477245  0.45864331     0.39400
O582        O  0.03317796  0.61201459  0.48105041    -1.08900
O583        O  0.04852210  0.34988325  0.52426981    -0.65500
Ni584      Ni  0.04267199  0.65975595  0.46229945     1.26300
O585        O  0.96103078  0.59154813  0.39379794    -0.65700
O586        O  0.10470254  0.65395410  0.49315000    -0.78000
C587        C  0.03379099  0.37819251  0.38988997     0.85400
O588        O  0.04863129  0.37328558  0.43833237    -0.65200
Ni589      Ni  0.06882833  0.59444697  0.55022208     1.27400
Ni590      Ni  0.97211975  0.61842367  0.45532295     1.26100
H591        H  0.97447791  0.35007165  0.45102459     0.40000
C592        C  0.38302445  0.60159609  0.66780025     0.04000
C593        C  0.33796281  0.60753338  0.64489585    -0.12100
C594        C  0.31675047  0.63119501  0.60206281     0.01500
C595        C  0.34076515  0.31614784  0.58208437    -0.10600
C596        C  0.38597204  0.31060402  0.60509638     0.04000
C597        C  0.40705819  0.28672200  0.64792551    -0.10100
H598        H  0.31920005  0.59319402  0.65995042     0.09600
H599        H  0.32444894  0.33449129  0.54889919     0.07100
H600        H  0.44192564  0.28221099  0.66538815     0.07000
C601        C  0.88593732  0.49636747  0.17782780     0.04000
C602        C  0.90864468  0.47380577  0.16028159    -0.12100
C603        C  0.88630988  0.45544823  0.11275669     0.01500
C604        C  0.84100872  0.45887190  0.08286193    -0.10600
C605        C  0.81749386  0.47989772  0.10125262     0.04000
C606        C  0.84031498  0.49884733  0.14868541    -0.10100
H607        H  0.94378758  0.47117004  0.18296991     0.09600
H608        H  0.82413564  0.44486893  0.04567742     0.07100
H609        H  0.82258219  0.51560909  0.16298722     0.07000
O610        O  0.51730823  0.53841862  0.04728646    -0.80000
O611        O  0.55806103  0.40572688  0.93473603    -0.64700
O612        O  0.52942823  0.49969954  0.97042156    -1.11300
C613        C  0.38615744  0.45442227  0.89451252     1.06900
O614        O  0.49787884  0.40170381  0.85823685    -0.77900
O615        O  0.45276795  0.46433696  0.83197708    -0.65500
Ni616      Ni  0.56502219  0.51976574  0.03879450     1.34900
C617        C  0.44678386  0.49761903  0.84006320     0.85600
O618        O  0.60333641  0.46649883  0.97372628    -0.78400
O619        O  0.61832468  0.50475993  0.04014275    -0.88700
C620        C  0.53748392  0.39355412  0.88843860     0.85200
O621        O  0.56384677  0.47666526  0.07464960    -0.66900
O622        O  0.39707336  0.43651200  0.86511995    -0.86600
C623        C  0.56856487  0.44298050  0.06706708     0.86000
C624        C  0.62980212  0.48554757  0.01236944     1.07600
H625        H  0.48600817  0.42191677  0.95975096     0.39400
O626        O  0.48630210  0.43968007  0.93554376    -1.08900
O627        O  0.45007083  0.50846320  0.88328719    -0.65500
Ni628      Ni  0.47085300  0.48664202  0.95189304     1.26300
O629        O  0.56477814  0.43113252  0.02385858    -0.65700
O630        O  0.41320317  0.47213164  0.93428388    -0.78000
C631        C  0.47758944  0.54584461  0.01668907     0.85400
O632        O  0.45752290  0.53314936  0.97092689    -0.65200
Ni633      Ni  0.45034327  0.42087799  0.86652100     1.27400
Ni634      Ni  0.54514112  0.45244863  0.95478779     1.26100
H635        H  0.52934349  0.51723656  0.94554008     0.40000
C636        C  0.12893336  0.44137604  0.74398463     0.04000
C637        C  0.17440491  0.44293309  0.76709737    -0.12100
C638        C  0.19896907  0.46054069  0.81528457     0.01500
C639        C  0.17692988  0.47833360  0.83859348    -0.10600
C640        C  0.13113477  0.47853888  0.81392232     0.04000
C641        C  0.10726030  0.45955733  0.76699530    -0.10100
H642        H  0.19076017  0.42908280  0.74841248     0.09600
H643        H  0.19520647  0.49189026  0.87591285     0.07100
H644        H  0.07198817  0.45871513  0.74864660     0.07000
C645        C  0.63338382  0.59654276  0.74373902     0.04000
C646        C  0.67841380  0.60226810  0.76743703    -0.12100
C647        C  0.69883519  0.62729195  0.80848157     0.01500
C648        C  0.67377017  0.31333889  0.82628150    -0.10600
C649        C  0.62862054  0.30755794  0.80323849     0.04000
C650        C  0.60837214  0.28262212  0.76167527    -0.10100
H651        H  0.69774756  0.58707454  0.75377571     0.09600
H652        H  0.68929846  0.33283258  0.85798620     0.07100
H653        H  0.57354098  0.27813880  0.74377340     0.07000
C654        C  0.38563202  0.67063880  0.16739129     0.04000
C655        C  0.33989796  0.67228802  0.13963382    -0.12100
C656        C  0.31658756  0.65280036  0.09292396     0.01500
C657        C  0.33933775  0.63294221  0.07244407    -0.10600
C658        C  0.38501018  0.63159097  0.09938894     0.04000
C659        C  0.40798419  0.64993629  0.14711445    -0.10100
H660        H  0.32227307  0.68789758  0.15523157     0.09600
H661        H  0.32155485  0.61789349  0.03626522     0.07100
H662        H  0.44322246  0.64782678  0.16854010     0.07000
O663        O  0.01982256  0.35667173  0.06681302    -0.80000
O664        O  0.05505581  0.56904942  0.94629393    -0.64700
O665        O  0.03301226  0.66282419  0.98520277    -1.11300
C666        C  0.88603012  0.62816489  0.89191793     1.06900
O667        O  0.00342455  0.57688999  0.86404222    -0.77900
O668        O  0.95830420  0.30762603  0.84027517    -0.65500
Ni669      Ni  0.06831436  0.68207614  0.05320450     1.34900
C670        C  0.95674485  0.34032143  0.85465217     0.85600
O671        O  0.10677935  0.62487304  0.99667902    -0.78400
O672        O  0.11937602  0.67606232  0.04505112    -0.88700
C673        C  0.03906061  0.56244591  0.89810622     0.85200
O674        O  0.08102637  0.63707470  0.09136155    -0.66900
O675        O  0.89834264  0.61047784  0.86345594    -0.86200
C676        C  0.07122614  0.60361995  0.07889456     0.86000
C677        C  0.13165571  0.65061501  0.02474064     1.07600
H678        H  0.97958304  0.58854446  0.95882407     0.39400
O679        O  0.98458634  0.60777405  0.93939799    -1.08900
O680        O  0.95943409  0.34758112  0.89860357    -0.65500
Ni681      Ni  0.97277289  0.65379194  0.96100948     1.26300
O682        O  0.05444912  0.59264597  0.03185350    -0.65700
O683        O  0.91227689  0.64357760  0.93473487    -0.78000
C684        C  0.98284904  0.37079513  0.03619377     0.85400
O685        O  0.96430252  0.36550529  0.98751443    -0.65200
Ni686      Ni  0.95268639  0.59480975  0.86751687     1.27400
Ni687      Ni  0.04560713  0.61574833  0.96802467     1.26100
H688        H  0.03578116  0.34685519  0.96197949     0.40000
C689        C  0.26825403  0.65120112  0.06814501    -0.04400
C690        C  0.24768323  0.61781472  0.06814512    -0.01600
C691        C  0.20276273  0.61739128  0.05246950     0.03400
C692        C  0.17784851  0.65030758  0.03582381    -0.04400
C693        C  0.19791870  0.68312720  0.03225568    -0.01500
C694        C  0.24301351  0.68359214  0.04870678     0.03400
C695        C  0.27307128  0.58405487  0.08637771     0.38100
C696        C  0.17205893  0.38313859  0.01097698     0.38100
C697        C  0.26350565  0.38422331  0.04553016     0.36500
C698        C  0.18298063  0.58332676  0.05645275     0.36500
N699        N  0.28000293  0.41113244  0.04299701    -0.38300
N700        N  0.16745456  0.55607778  0.05977554    -0.38300
N701        N  0.15146635  0.40959384  0.99371190    -0.37800
N702        N  0.29321623  0.55708204  0.10056758    -0.37800
C703        C  0.74681802  0.63238259  0.83246674    -0.04400
C704        C  0.76516307  0.31123225  0.80130626    -0.01600
C705        C  0.81067534  0.31036413  0.82110431     0.03400
C706        C  0.83840107  0.63149924  0.87279065    -0.04400
C707        C  0.82021560  0.62170971  0.90503915    -0.01500
C708        C  0.77454222  0.62189210  0.88482178     0.03400
C709        C  0.73707193  0.32471805  0.74874732     0.38100
C710        C  0.84827783  0.60958348  0.95822004     0.38100
C711        C  0.75607205  0.60961570  0.91724119     0.36500
C712        C  0.82887680  0.32224107  0.78814471     0.36500
N713        N  0.74130276  0.59989929  0.94309462    -0.38300
N714        N  0.84319268  0.33154662  0.76162997    -0.38300
N715        N  0.87061123  0.59996329  0.00068747    -0.37800
N716        N  0.71463031  0.33548704  0.70690093    -0.37800
C717        C  0.10803145  0.49959273  0.83666833    -0.04400
C718        C  0.08369139  0.48121196  0.85670473    -0.01600
C719        C  0.06152625  0.50171440  0.87777048     0.03400
C720        C  0.06449313  0.54043039  0.87987804    -0.04400
C721        C  0.08945541  0.55869828  0.86079848    -0.01500
C722        C  0.10973047  0.53843278  0.83737845     0.03400
C723        C  0.08070167  0.44133388  0.85476593     0.38100
C724        C  0.09482308  0.59837265  0.86595208     0.38100
C725        C  0.12934124  0.55770674  0.81042731     0.36500
C726        C  0.03514848  0.48302798  0.89644678     0.36500
N727        N  0.14378584  0.57332060  0.78778336    -0.38300
N728        N  0.01405194  0.46784055  0.91105864    -0.38300
N729        N  0.09979903  0.62991157  0.87080196    -0.37800
N730        N  0.07788450  0.40955554  0.85305005    -0.37800
C731        C  0.33924070  0.45563154  0.88003746    -0.04400
C732        C  0.31443733  0.42296480  0.86640993    -0.01600
C733        C  0.26917863  0.42451338  0.84857107     0.03400
C734        C  0.24768279  0.45892555  0.84141951    -0.04400
C735        C  0.27283488  0.49151434  0.85669208    -0.01500
C736        C  0.31837857  0.48980867  0.87635271     0.03400
C737        C  0.33534153  0.38757913  0.87029237     0.38100
C738        C  0.25222539  0.52726025  0.85048497     0.38100
C739        C  0.34316567  0.52375946  0.88945895     0.36500
C740        C  0.24488790  0.39041880  0.83826108     0.36500
N741        N  0.36243776  0.55105072  0.89956168    -0.38300
N742        N  0.22558344  0.36321520  0.82998572    -0.38300
N743        N  0.23711532  0.55627148  0.84656057    -0.37800
N744        N  0.35182221  0.35936918  0.87281319    -0.37800
C745        C  0.60281878  0.32805916  0.82311838    -0.04400
C746        C  0.60218217  0.31599345  0.86864524    -0.01600
C747        C  0.58141994  0.33748041  0.89073860     0.03400
C748        C  0.56022940  0.37074007  0.86651637    -0.04400
C749        C  0.55883660  0.38162477  0.81910456    -0.01500
C750        C  0.58049119  0.36055672  0.79790690     0.03400
C751        C  0.62158158  0.61404896  0.89138419     0.38100
C752        C  0.53562501  0.41486160  0.79221981     0.38100
C753        C  0.58020793  0.37251387  0.75034692     0.36500
C754        C  0.58026751  0.32458640  0.93699803     0.36500
N755        N  0.57997519  0.38209834  0.71245229    -0.38300
N756        N  0.57908731  0.64756421  0.97375354    -0.38300
N757        N  0.51685395  0.44115901  0.77044673    -0.37800
N758        N  0.63675628  0.58556270  0.90832351    -0.37800
C759        C  0.45360734  0.56803430  0.03718085    -0.04400
C760        C  0.43256025  0.60123810  0.01265136    -0.01600
C761        C  0.41047076  0.62222025  0.03338417     0.03400
C762        C  0.40893128  0.60988461  0.07824947    -0.04400
C763        C  0.43006295  0.57679575  0.10289134    -0.01500
C764        C  0.45229281  0.55587265  0.08241198     0.03400
C765        C  0.43450322  0.61435723  0.96696660     0.38100
C766        C  0.42817486  0.56400351  0.14881255     0.38100
C767        C  0.47256562  0.52112557  0.10695090     0.36500
C768        C  0.39036274  0.65713015  0.00966079     0.36500
N769        N  0.48864926  0.49339064  0.12636623    -0.38300
N770        N  0.37435937  0.68512945  0.99139603    -0.38300
N771        N  0.42645943  0.55409015  0.18540747    -0.37800
N772        N  0.43571608  0.62503262  0.93038582    -0.37800
C773        C  0.76889521  0.48127368  0.07207451    -0.04400
C774        C  0.74447199  0.44835118  0.06059078    -0.01600
C775        C  0.69865692  0.44981630  0.03777173     0.03400
C776        C  0.67691895  0.48418536  0.02807037    -0.04400
C777        C  0.70118414  0.51706312  0.03847373    -0.01500
C778        C  0.74677080  0.51556805  0.05875048     0.03400
C779        C  0.76641198  0.41282545  0.07479627     0.38100
C780        C  0.67946884  0.55257225  0.02956768     0.38100
C781        C  0.77086964  0.54940754  0.06555429     0.36500
C782        C  0.67431611  0.41577149  0.02784826     0.36500
N783        N  0.79010537  0.57635280  0.07087225    -0.38300
N784        N  0.65513575  0.38853827  0.02009755    -0.38300
N785        N  0.66235477  0.58092062  0.02332395    -0.37800
N786        N  0.78375388  0.38444378  0.08594023    -0.37800
C787        C  0.91107002  0.43359587  0.09345750    -0.04400
C788        C  0.91976162  0.39603022  0.10680001    -0.01600
C789        C  0.94409484  0.37542498  0.08886863     0.03400
C790        C  0.95970883  0.39255404  0.05772321    -0.04400
C791        C  0.95115783  0.43019825  0.04477578    -0.01500
C792        C  0.92691538  0.45073098  0.06272677     0.03400
C793        C  0.90333351  0.71186089  0.13835583     0.38100
C794        C  0.96779367  0.44796964  0.01355275     0.38100
C795        C  0.91817502  0.48950229  0.04954656     0.36500
C796        C  0.95179564  0.66972083  0.10075774     0.36500
N797        N  0.91119566  0.52040369  0.03895608    -0.38300
N798        N  0.95761097  0.63858904  0.11029714    -0.38300
N799        N  0.98098530  0.46235969  0.98870972    -0.37800
N800        N  0.89016097  0.69802748  0.16363170    -0.37800
C801        C  0.40396237  0.57476012  0.71134507    -0.04400
C802        C  0.39260833  0.53729492  0.70193842    -0.01600
C803        C  0.40599808  0.51244525  0.74387007     0.03400
C804        C  0.43345306  0.52432016  0.79591068    -0.04400
C805        C  0.44695089  0.56165186  0.80478334    -0.01500
C806        C  0.43192276  0.58678014  0.76263344     0.03400
C807        C  0.36707455  0.52426608  0.64867917     0.38100
C808        C  0.47645397  0.57451702  0.85698221     0.38100
C809        C  0.44457332  0.62521993  0.77208740     0.36500
C810        C  0.38873423  0.47527248  0.73303457     0.36500
N811        N  0.45474519  0.65585190  0.77947174    -0.38300
N812        N  0.37460485  0.44578051  0.72438969    -0.38300
N813        N  0.49997787  0.58519295  0.89840535    -0.37800
N814        N  0.34704737  0.51389600  0.60622514    -0.37800
C815        C  0.17791359  0.63387980  0.53974489    -0.04400
C816        C  0.19644885  0.61422034  0.51356025    -0.01600
C817        C  0.24169421  0.61599268  0.53147626     0.03400
C818        C  0.26879614  0.63544549  0.57754076    -0.04400
C819        C  0.25003415  0.32250430  0.60297386    -0.01500
C820        C  0.20451906  0.32257154  0.58312476     0.03400
C821        C  0.16932401  0.59113653  0.46946509     0.38100
C822        C  0.27775563  0.34263540  0.65030525     0.38100
C823        C  0.18530672  0.34483973  0.60812130     0.36500
C824        C  0.26064607  0.59722788  0.50329439     0.36500
N825        N  0.17047766  0.36302168  0.62821383    -0.38300
N826        N  0.27609239  0.58290134  0.48069915    -0.38300
N827        N  0.29986095  0.35845808  0.68827718    -0.37800
N828        N  0.14799727  0.57232253  0.43457067    -0.37800
C829        C  0.07281345  0.36754019  0.61335379    -0.04400
C830        C  0.08090158  0.35567706  0.66375585    -0.01600
C831        C  0.09782824  0.38035626  0.70599257     0.03400
C832        C  0.10478534  0.41740096  0.69824189    -0.04400
C833        C  0.09210890  0.43052311  0.64773291    -0.01500
C834        C  0.07675616  0.40578853  0.60540173     0.03400
C835        C  0.07269443  0.31802119  0.67337497     0.38100
C836        C  0.09608384  0.46950304  0.63976732     0.38100
C837        C  0.06776892  0.42008637  0.55487524     0.36500
C838        C  0.10987586  0.36726440  0.75819285     0.36500
N839        N  0.06105815  0.43203592  0.51498720    -0.38300
N840        N  0.11973782  0.35675898  0.79979673    -0.38300
N841        N  0.09899861  0.50061495  0.63343241    -0.37800
N842        N  0.06645139  0.62149174  0.68168964    -0.37800
C843        C  0.90979593  0.51850596  0.22597122    -0.04400
C844        C  0.93966630  0.54573337  0.22899373    -0.01600
C845        C  0.95668300  0.57079303  0.27082369     0.03400
C846        C  0.94424368  0.56863364  0.31024648    -0.04400
C847        C  0.91737850  0.53911936  0.30940840    -0.01500
C848        C  0.90043542  0.51418234  0.26748160     0.03400
C849        C  0.95173351  0.54911222  0.18807441     0.38100
C850        C  0.90411804  0.53558467  0.34929836     0.38100
C851        C  0.87259480  0.48430748  0.26656699     0.36500
C852        C  0.98606685  0.59937377  0.27209833     0.36500
N853        N  0.85031006  0.46057529  0.26576245    -0.38300
N854        N  0.00902799  0.62223988  0.27218044    -0.38300
N855        N  0.89328874  0.53262288  0.38082544    -0.37800
N856        N  0.96195722  0.55179197  0.15598941    -0.37800
C857        C  0.74485013  0.63818897  0.32808185    -0.04400
C858        C  0.77311150  0.64654543  0.38114383    -0.01600
C859        C  0.81873946  0.64622411  0.40086740     0.03400
C860        C  0.83640924  0.63848250  0.36741261    -0.04400
C861        C  0.80832930  0.62757020  0.31540014    -0.01500
C862        C  0.76282510  0.62712776  0.29599170     0.03400
C863        C  0.75543248  0.65700726  0.41517279     0.38100
C864        C  0.82622926  0.61599298  0.28194542     0.38100
C865        C  0.73446063  0.61483099  0.24301640     0.36500
C866        C  0.84730534  0.32180375  0.45492492     0.36500
N867        N  0.71185476  0.60497989  0.20082715    -0.38300
N868        N  0.87012473  0.32880063  0.49831138    -0.38300
N869        N  0.84023228  0.60668207  0.25505686    -0.37800
N870        N  0.74156056  0.33191805  0.44237737    -0.37800
C871        C  0.60818709  0.70060206  0.19764205    -0.04400
C872        C  0.57898503  0.35553542  0.14639970    -0.01600
C873        C  0.56549120  0.38012414  0.10376431     0.03400
C874        C  0.58057629  0.41698127  0.11194037    -0.04400
C875        C  0.60770153  0.42913153  0.16403868    -0.01500
C876        C  0.62105596  0.40444223  0.20628027     0.03400
C877        C  0.56318816  0.65133362  0.13734458     0.38100
C878        C  0.62392603  0.46664992  0.17491653     0.38100
C879        C  0.64828584  0.75075993  0.25935670     0.36500
C880        C  0.53581621  0.36714810  0.05166749     0.36500
N881        N  0.67001886  0.76101795  0.30154999    -0.38300
N882        N  0.51226363  0.35624369  0.01039163    -0.38300
N883        N  0.63684339  0.49652682  0.18389705    -0.37800
N884        N  0.54980667  0.62160576  0.12918662    -0.37800
C885        C  0.08139733  0.57648196  0.12208791    -0.04400
C886        C  0.08659718  0.58885401  0.17105022    -0.01600
C887        C  0.10481219  0.56533710  0.21483191     0.03400
C888        C  0.11499886  0.52863316  0.20964342    -0.04400
C889        C  0.10501174  0.51479362  0.16021972    -0.01500
C890        C  0.08912658  0.53859999  0.11670399     0.03400
C891        C  0.07288530  0.62555129  0.17708976     0.38100
C892        C  0.11156823  0.47590710  0.15439299     0.38100
C893        C  0.08249570  0.52367694  0.06741187     0.36500
C894        C  0.11455425  0.57921036  0.26584883     0.36500
N895        N  0.07752822  0.51108693  0.02856844    -0.38300
N896        N  0.12283296  0.59022372  0.30669721    -0.38300
N897        N  0.11629259  0.44483924  0.14959502    -0.37800
N898        N  0.06205279  0.65467972  0.18250020    -0.37800
C899        C  0.11029375  0.44069993  0.33803482    -0.04400
C900        C  0.08218485  0.45902928  0.35308807    -0.01600
C901        C  0.05665472  0.43860396  0.36940861     0.03400
C902        C  0.05976569  0.39991526  0.37203505    -0.04400
C903        C  0.08782153  0.38157331  0.35734085    -0.01500
C904        C  0.11197397  0.40176101  0.33887346     0.03400
C905        C  0.07874851  0.49890046  0.35105473     0.38100
C906        C  0.09238412  0.67528760  0.36225876     0.38100
C907        C  0.13638939  0.38233643  0.31777379     0.36500
C908        C  0.02644484  0.45738511  0.38236913     0.36500
N909        N  0.15538648  0.36688722  0.30028715    -0.38300
N910        N  0.00214273  0.47261996  0.39213127    -0.38300
N911        N  0.09614205  0.64363322  0.36693251    -0.37800
N912        N  0.07513001  0.53064250  0.34878424    -0.37800
C913        C  0.34518401  0.47206876  0.38012595    -0.04400
C914        C  0.31540633  0.46057940  0.32894381    -0.01600
C915        C  0.27021898  0.46078383  0.31173451     0.03400
C916        C  0.25389481  0.47300638  0.34501967    -0.04400
C917        C  0.28364911  0.48249459  0.39710654    -0.01500
C918        C  0.32910673  0.48199646  0.41462539     0.03400
C919        C  0.33102964  0.44802212  0.29364922     0.38100
C920        C  0.26748553  0.49358347  0.43237062     0.38100
C921        C  0.35914739  0.49315434  0.46754760     0.36500
C922        C  0.24044900  0.44788233  0.25956445     0.36500
N923        N  0.38322073  0.50190961  0.50981321    -0.38300
N924        N  0.21698134  0.43754308  0.21793790    -0.38300
N925        N  0.25441247  0.50196118  0.46053215    -0.37800
N926        N  0.34291734  0.43811404  0.26494999    -0.37800
C927        C  0.58836120  0.51957545  0.61592841    -0.04400
C928        C  0.61467970  0.50764103  0.66845717    -0.01600
C929        C  0.62572177  0.53224495  0.71011937     0.03400
C930        C  0.61363595  0.56966378  0.70024850    -0.04400
C931        C  0.58779721  0.58189747  0.64840350    -0.01500
C932        C  0.57465533  0.55692390  0.60644315     0.03400
C933        C  0.63323085  0.47069745  0.68038195     0.38100
C934        C  0.57598728  0.62054723  0.63810755     0.38100
C935        C  0.54714640  0.56999685  0.55368190     0.36500
C936        C  0.65007155  0.51905457  0.76357286     0.36500
N937        N  0.52529871  0.58048585  0.51155973    -0.38300
N938        N  0.66924445  0.50841820  0.80608181    -0.38300
N939        N  0.56657624  0.31812261  0.62979933    -0.37800
N940        N  0.64829583  0.44139313  0.69000121    -0.37800
C941        C  0.40970481  0.68982416  0.21851391    -0.04400
C942        C  0.44320395  0.71514211  0.22755920    -0.01600
C943        C  0.46405874  0.40116137  0.27502447     0.03400
C944        C  0.44744620  0.39959159  0.31046205    -0.04400
C945        C  0.41615962  0.37236401  0.30327892    -0.01500
C946        C  0.39876065  0.35002380  0.25837541     0.03400
C947        C  0.45471873  0.72324581  0.18709217     0.38100
C948        C  0.40006970  0.36814937  0.34042209     0.38100
C949        C  0.36928206  0.65350158  0.25335272     0.36500
C950        C  0.50484155  0.41980002  0.28968342     0.36500
N951        N  0.34596644  0.62970786  0.24930588    -0.38300
N952        N  0.53845112  0.43308803  0.30239208    -0.38300
N953        N  0.38690356  0.36485334  0.36972726    -0.37800
N954        N  0.46359627  0.73002492  0.15464573    -0.37800
C955        C  0.41171026  0.33056513  0.58512993    -0.04400
C956        C  0.43187604  0.36404735  0.60842025    -0.01600
C957        C  0.45731666  0.38280917  0.59053315     0.03400
C958        C  0.46240953  0.36823500  0.54889319    -0.04400
C959        C  0.44212262  0.33471931  0.52553348    -0.01500
C960        C  0.41658265  0.31602215  0.54345320     0.03400
C961        C  0.42548865  0.37956953  0.65001582     0.38100
C962        C  0.44849776  0.31900494  0.48405364     0.38100
C963        C  0.39512844  0.61520178  0.51895079     0.36500
C964        C  0.47707043  0.41774187  0.61394704     0.36500
N965        N  0.37762629  0.58820404  0.49898799    -0.38300
N966        N  0.49281238  0.44557903  0.63266388    -0.38300
N967        N  0.45390814  0.63962189  0.45129200    -0.37800
N968        N  0.42009234  0.39189064  0.68299114    -0.37800
C969        C  0.60348199  0.60791144  0.32377594    -0.04400
C970        C  0.57890788  0.57729725  0.29590902    -0.01600
C971        C  0.55786112  0.55530270  0.31670201     0.03400
C972        C  0.56383526  0.56201112  0.36768777    -0.04400
C973        C  0.58823524  0.59319233  0.39528999    -0.01500
C974        C  0.60668416  0.61665279  0.37250096     0.03400
C975        C  0.57601209  0.56784492  0.24606455     0.38100
C976        C  0.59285512  0.60231567  0.44596265     0.38100
C977        C  0.62720232  0.65088001  0.39761573     0.36500
C978        C  0.52962483  0.52614848  0.28443750     0.36500
N979        N  0.64278806  0.67878062  0.41613990    -0.38300
N980        N  0.50629427  0.50394969  0.25695402    -0.38300
N981        N  0.59691453  0.61003715  0.48646594    -0.37800
N982        N  0.57385904  0.55985903  0.20657564    -0.37800
C983        C  0.77767414  0.45604075  0.58039375    -0.04400
C984        C  0.75246518  0.48820179  0.57329567    -0.01600
C985        C  0.70684644  0.48575911  0.55247840     0.03400
C986        C  0.68606352  0.45108543  0.53924078    -0.04400
C987        C  0.71134031  0.41891088  0.54684948    -0.01500
C988        C  0.75675854  0.42145845  0.56609366     0.03400
C989        C  0.77373396  0.52360828  0.59046652     0.38100
C990        C  0.69094446  0.38299075  0.53679180     0.38100
C991        C  0.78209496  0.38835837  0.57157765     0.36500
C992        C  0.68185286  0.51867136  0.54901803     0.36500
N993        N  0.80237724  0.36200985  0.57602555    -0.38300
N994        N  0.66212664  0.54489426  0.54691980    -0.38300
N995        N  0.67494997  0.35425524  0.52986750    -0.37800
N996        N  0.79074740  0.55179339  0.60434301    -0.37800
C997        C  0.91971601  0.42204643  0.73346148    -0.04400
C998        C  0.91031679  0.42813211  0.77468035    -0.01600
C999        C  0.92469995  0.40281714  0.81630311     0.03400
C1000       C  0.94913768  0.37112320  0.81717854    -0.04400
C1001       C  0.96253312  0.36759861  0.77855488    -0.01500
C1002       C  0.94784040  0.39293222  0.73694911     0.03400
C1003       C  0.88441086  0.45997749  0.77323016     0.38100
C1004       C  0.99008531  0.33717253  0.77980354     0.38100
C1005       C  0.95971237  0.38758674  0.69609857     0.36500
C1006       C  0.91124595  0.40854056  0.85569462     0.36500
N1007       N  0.96949251  0.38329134  0.66383947    -0.38300
N1008       N  0.90021953  0.41335981  0.88676886    -0.38300
N1009       N  0.01138401  0.31280012  0.77947037    -0.37800
N1010       N  0.86361479  0.48526926  0.77189836    -0.37800
C1011       C  0.91760466  0.50322326  0.59412483    -0.04400
C1012       C  0.92635980  0.54070886  0.60752523    -0.01600
C1013       C  0.94860608  0.56174223  0.58734281     0.03400
C1014       C  0.96204125  0.54531577  0.55353836    -0.04400
C1015       C  0.95325691  0.50777204  0.54021390    -0.01500
C1016       C  0.93164147  0.48660169  0.56110561     0.03400
C1017       C  0.91235803  0.55757970  0.64206482     0.38100
C1018       C  0.96663067  0.49085361  0.50522346     0.38100
C1019       C  0.92432712  0.44762184  0.54921116     0.36500
C1020       C  0.95599888  0.60066371  0.59961818     0.36500
N1021       N  0.91877403  0.41649897  0.53989537    -0.38300
N1022       N  0.96163716  0.63174375  0.60920658    -0.38300
N1023       N  0.97688420  0.47732242  0.47692811    -0.37800
N1024       N  0.90122218  0.57094041  0.66969602    -0.37800
C1025       C  0.89553911  0.77609740  0.68379010     0.04000
C1026       C  0.84998490  0.77349031  0.65584994    -0.12100
C1027       C  0.82613676  0.79125836  0.60765681     0.01500
C1028       C  0.84842786  0.81156862  0.58705750    -0.10600
C1029       C  0.89401652  0.81446251  0.61502226     0.04000
C1030       C  0.91743162  0.79703463  0.66349210    -0.10100
H1031       H  0.83297407  0.75748642  0.67173102     0.09600
H1032       H  0.83040438  0.82533542  0.54971810     0.07100
H1033       H  0.95260595  0.79950730  0.68508107     0.07000
O1034       O  0.50388698  0.86040087  0.35988368    -0.80000
O1035       O  0.46711422  0.73380824  0.48187723    -0.64700
O1036       O  0.49291721  0.82518261  0.43904926    -1.11300
C1037       C  0.63869981  0.78178711  0.52225848     1.06900
O1038       O  0.52644344  0.73065533  0.55902382    -0.77900
O1039       O  0.57184273  0.79265044  0.58189995    -0.65500
Ni1040     Ni  0.45671613  0.84000465  0.36768525     1.34900
C1041       C  0.57584698  0.82597078  0.57214741     0.85600
O1042       O  0.42030010  0.79312684  0.43939828    -0.78400
O1043       O  0.40359799  0.82327273  0.36564772    -0.88700
C1044       C  0.48698845  0.72258827  0.52844161     0.85200
O1045       O  0.46294287  0.79493418  0.33827288    -0.66900
O1046       O  0.62732377  0.76266856  0.55016319    -0.86200
C1047       C  0.45858710  0.76226331  0.35051582     0.86000
C1048       C  0.39264914  0.80758748  0.39654365     1.07600
H1049       H  0.53912807  0.74814275  0.45648344     0.39400
O1050       O  0.53839818  0.76658079  0.47985718    -1.08900
O1051       O  0.57092139  0.83661845  0.52788995    -0.65500
Ni1052     Ni  0.55267815  0.81310733  0.46064484     1.26300
O1053       O  0.46081153  0.75431143  0.39408352    -0.65700
O1054       O  0.61193740  0.79996872  0.48238187    -0.78000
C1055       C  0.54276668  0.87047914  0.39002014     0.85400
O1056       O  0.56396721  0.85911355  0.43692026    -0.65200
Ni1057     Ni  0.57407558  0.74827504  0.54942355     1.27400
Ni1058     Ni  0.47912165  0.77926755  0.45956822     1.26100
H1059       H  0.49146497  0.84434046  0.46110985     0.40000
C1060       C  0.13801677  0.83843066  0.25636667     0.04000
C1061       C  0.11449924  0.81840595  0.27516390    -0.12100
C1062       C  0.13620007  0.79551151  0.31896943     0.01500
C1063       C  0.18201376  0.79200847  0.34295499    -0.10600
C1064       C  0.20582686  0.81165504  0.32355197     0.04000
C1065       C  0.18344297  0.83544645  0.28089135    -0.10100
H1066       H  0.07923048  0.82041362  0.25534058     0.09600
H1067       H  0.19889431  0.77355206  0.37587019     0.07100
H1068       H  0.20135717  0.85097937  0.26576523     0.07000
C1069       C  0.62950169  0.00674517  0.24106400     0.04000
C1070       C  0.60599558  0.98751480  0.26109615    -0.12100
C1071       C  0.62768169  0.96276394  0.30293064     0.01500
C1072       C  0.67279288  0.95718652  0.32443691    -0.10600
C1073       C  0.69660843  0.97646443  0.30503808     0.04000
C1074       C  0.67467663  0.00111807  0.26340529    -0.10100
H1075       H  0.57116058  0.99182274  0.24442315     0.09600
H1076       H  0.68925712  0.93760585  0.35602927     0.07100
H1077       H  0.69295638  0.01624153  0.24839321     0.07000
O1078       O  0.99944974  0.69566109  0.35632356    -0.80000
O1079       O  0.96616684  0.90589459  0.48264548    -0.64700
O1080       O  0.98100422  0.99818000  0.43239643    -1.11300
C1081       C  0.13117665  0.96349692  0.52420157     1.06900
O1082       O  0.02022937  0.91647442  0.56215025    -0.77900
O1083       O  0.07605113  0.63996362  0.58575118    -0.65500
Ni1084     Ni  0.94875090  0.01116179  0.36048610     1.34900
C1085       C  0.06479570  0.67309793  0.57175450     0.85600
O1086       O  0.91074006  0.95936982  0.42745964    -0.78400
O1087       O  0.89498582  0.99540155  0.35780029    -0.88700
C1088       C  0.98442189  0.90094271  0.53145807     0.85200
O1089       O  0.95349474  0.96511734  0.33244241    -0.66900
O1090       O  0.12038203  0.93731934  0.54471386    -0.86200
C1091       C  0.95451549  0.93237310  0.34820361     0.86000
C1092       C  0.88371263  0.97580199  0.38567379     1.07600
H1093       H  0.03764509  0.92807226  0.45869494     0.39400
O1094       O  0.03311627  0.94532638  0.48104646    -1.08900
O1095       O  0.04866681  0.68332954  0.52443250    -0.65500
Ni1096     Ni  0.04253258  0.99306749  0.46221085     1.26300
O1097       O  0.96104769  0.92474066  0.39377724    -0.65700
O1098       O  0.10457233  0.98733851  0.49308449    -0.78000
C1099       C  0.03388994  0.71167039  0.39004212     0.85400
O1100       O  0.04877298  0.70673781  0.43848831    -0.65200
Ni1101     Ni  0.06875929  0.92784817  0.55027339     1.27400
Ni1102     Ni  0.97203790  0.95165411  0.45524842     1.26100
H1103       H  0.97462149  0.68358917  0.45125386     0.40000
C1104       C  0.38295810  0.93512718  0.66785781     0.04000
C1105       C  0.33789312  0.94105238  0.64495520    -0.12100
C1106       C  0.31667409  0.96474294  0.60215597     0.01500
C1107       C  0.34083523  0.64939570  0.58214859    -0.10600
C1108       C  0.38603772  0.64383184  0.60517417     0.04000
C1109       C  0.40709528  0.61990788  0.64795158    -0.10100
H1110       H  0.31913265  0.92668271  0.65998666     0.09600
H1111       H  0.32454370  0.66777663  0.54900340     0.07100
H1112       H  0.44196184  0.61538660  0.66542382     0.07000
C1113       C  0.88605269  0.82957236  0.17781200     0.04000
C1114       C  0.90871815  0.80702725  0.16019696    -0.12100
C1115       C  0.88633531  0.78867728  0.11267551     0.01500
C1116       C  0.84103121  0.79210364  0.08284092    -0.10600
C1117       C  0.81756295  0.81313339  0.10128997     0.04000
C1118       C  0.84042701  0.83206524  0.14873304    -0.10100
H1119       H  0.94386563  0.80439781  0.18283150     0.09600
H1120       H  0.82412095  0.77810748  0.04565474     0.07100
H1121       H  0.82272881  0.84882202  0.16308805     0.07000
O1122       O  0.51737991  0.87177746  0.04738676    -0.80000
O1123       O  0.55808188  0.73907905  0.93480925    -0.64700
O1124       O  0.52951699  0.83308158  0.97050882    -1.11300
C1125       C  0.38621785  0.78783685  0.89453904     1.06900
O1126       O  0.49796997  0.73520987  0.85821995    -0.77900
O1127       O  0.45272378  0.79778899  0.83194562    -0.65500
Ni1128     Ni  0.56510174  0.85314224  0.03888794     1.34900
C1129       C  0.44679279  0.83107489  0.84007767     0.85600
O1130       O  0.60342212  0.79981728  0.97388010    -0.78400
O1131       O  0.61840650  0.83815257  0.04022324    -0.88700
C1132       C  0.53754234  0.72697483  0.88846955     0.85200
O1133       O  0.56394696  0.81003741  0.07475290    -0.66900
O1134       O  0.39713695  0.76987924  0.86518291    -0.86600
C1135       C  0.56859791  0.77634097  0.06715583     0.86000
C1136       C  0.62988485  0.81889596  0.01248750     1.07600
H1137       H  0.48601399  0.75533046  0.95975038     0.39400
O1138       O  0.48634146  0.77309745  0.93556353    -1.08900
O1139       O  0.45017044  0.84191186  0.88334790    -0.65500
Ni1140     Ni  0.47092093  0.82006443  0.95193084     1.26300
O1141       O  0.56476977  0.76448140  0.02393163    -0.65700
O1142       O  0.41325267  0.80558943  0.93426969    -0.78000
C1143       C  0.47767471  0.87924102  0.01676992     0.85400
O1144       O  0.45762127  0.86657657  0.97098901    -0.65200
Ni1145     Ni  0.45040714  0.75430860  0.86652980     1.27400
Ni1146     Ni  0.54520203  0.78581492  0.95487776     1.26100
H1147       H  0.52945749  0.85061414  0.94563668     0.40000
C1148       C  0.12903131  0.77474553  0.74414424     0.04000
C1149       C  0.17449799  0.77630871  0.76724854    -0.12100
C1150       C  0.19905280  0.79395801  0.81539886     0.01500
C1151       C  0.17700823  0.81178746  0.83867416    -0.10600
C1152       C  0.13121204  0.81197268  0.81400192     0.04000
C1153       C  0.10734875  0.79295444  0.76711184    -0.10100
H1154       H  0.19085660  0.76243938  0.74858178     0.09600
H1155       H  0.19527966  0.82538162  0.87596505     0.07100
H1156       H  0.07207600  0.79210842  0.74875498     0.07000
C1157       C  0.63338587  0.92981885  0.74377373     0.04000
C1158       C  0.67842260  0.93552470  0.76754409    -0.12100
C1159       C  0.69882133  0.96053608  0.80861088     0.01500
C1160       C  0.67375783  0.64662197  0.82631244    -0.10600
C1161       C  0.62860744  0.64084087  0.80327466     0.04000
C1162       C  0.60836193  0.61589081  0.76172476    -0.10100
H1163       H  0.69777853  0.92033578  0.75391015     0.09600
H1164       H  0.68928050  0.66613473  0.85799280     0.07100
H1165       H  0.57352944  0.61141395  0.74381651     0.07000
C1166       C  0.38570431  0.00403860  0.16743572     0.04000
C1167       C  0.33996909  0.00572962  0.13966370    -0.12100
C1168       C  0.31663939  0.98627127  0.09292759     0.01500
C1169       C  0.33937888  0.96641291  0.07242951    -0.10600
C1170       C  0.38504977  0.96500987  0.09939718     0.04000
C1171       C  0.40803541  0.98331072  0.14715582    -0.10100
H1172       H  0.32235697  0.02134729  0.15527043     0.09600
H1173       H  0.32158692  0.95139160  0.03622790     0.07100
H1174       H  0.44326903  0.98115138  0.16860010     0.07000
O1175       O  0.01992185  0.69005303  0.06673219    -0.80000
O1176       O  0.05505415  0.90245430  0.94623696    -0.64700
O1177       O  0.03300517  0.99622127  0.98512837    -1.11300
C1178       C  0.88601131  0.96149712  0.89195913     1.06900
O1179       O  0.00337357  0.91025373  0.86399835    -0.77900
O1180       O  0.95826235  0.64085882  0.84022611    -0.65500
Ni1181     Ni  0.06831529  0.01548114  0.05312418     1.34900
C1182       C  0.95673748  0.67356697  0.85458681     0.85600
O1183       O  0.10678347  0.95829607  0.99656817    -0.78400
O1184       O  0.11937821  0.00946741  0.04497293    -0.88700
C1185       C  0.03903333  0.89583789  0.89805233     0.85200
O1186       O  0.08103772  0.97048511  0.09129902    -0.66900
O1187       O  0.89830722  0.94378863  0.86349753    -0.86200
C1188       C  0.07127575  0.93702323  0.07884332     0.86000
C1189       C  0.13166211  0.98403515  0.02464563     1.07600
H1190       H  0.97961200  0.92193220  0.95884085     0.39400
O1191       O  0.98458885  0.94115257  0.93938048    -1.08900
O1192       O  0.95947153  0.68086156  0.89854831    -0.65500
Ni1193     Ni  0.97276906  0.98717539  0.96096584     1.26300
O1194       O  0.05450321  0.92604451  0.03180604    -0.65700
O1195       O  0.91227262  0.97694970  0.93473614    -0.78000
C1196       C  0.98295051  0.70417577  0.03610781     0.85400
O1197       O  0.96439653  0.69887212  0.98743382    -0.65200
Ni1198     Ni  0.95264607  0.92814728  0.86751413     1.27400
Ni1199     Ni  0.04560789  0.94914880  0.96795779     1.26100
H1200       H  0.03582727  0.68011249  0.96188258     0.40000
C1201       C  0.26829888  0.98467830  0.06815195    -0.04400
C1202       C  0.24772080  0.95127654  0.06807125    -0.01600
C1203       C  0.20279000  0.95083369  0.05234932     0.03400
C1204       C  0.17786614  0.98374723  0.03574227    -0.04400
C1205       C  0.19795073  0.01659166  0.03227910    -0.01500
C1206       C  0.24305623  0.01707561  0.04877729     0.03400
C1207       C  0.27311516  0.91751817  0.08628619     0.38100
C1208       C  0.17209109  0.71631906  0.01078352     0.38100
C1209       C  0.26356675  0.71740353  0.04551872     0.36500
C1210       C  0.18301037  0.91674767  0.05625796     0.36500
N1211       N  0.28008212  0.74430922  0.04301175    -0.38300
N1212       N  0.16749660  0.88947698  0.05952870    -0.38300
N1213       N  0.15150128  0.74276696  0.99345447    -0.37800
N1214       N  0.29326943  0.89054947  0.10046820    -0.37800
C1215       C  0.74680153  0.96565218  0.83260237    -0.04400
C1216       C  0.76515486  0.64446614  0.80131429    -0.01600
C1217       C  0.81067137  0.64364688  0.82113069     0.03400
C1218       C  0.83838231  0.96481184  0.87287275    -0.04400
C1219       C  0.82022036  0.95496892  0.90512876    -0.01500
C1220       C  0.77454553  0.95510756  0.88492653     0.03400
C1221       C  0.73705368  0.65783945  0.74869465     0.38100
C1222       C  0.84831021  0.94284097  0.95829984     0.38100
C1223       C  0.75609055  0.94272922  0.91731596     0.36500
C1224       C  0.82886710  0.65551244  0.78816018     0.36500
N1225       N  0.74132350  0.93292394  0.94313251    -0.38300
N1226       N  0.84318061  0.66481485  0.76164177    -0.38300
N1227       N  0.87066670  0.93322564  0.00076359    -0.37800
N1228       N  0.71460559  0.66851048  0.70679466    -0.37800
C1229       C  0.10808295  0.83302204  0.83670918    -0.04400
C1230       C  0.08372476  0.81463114  0.85671241    -0.01600
C1231       C  0.06153007  0.83512420  0.87774257     0.03400
C1232       C  0.06446658  0.87384020  0.87982036    -0.04400
C1233       C  0.08942364  0.89212144  0.86074591    -0.01500
C1234       C  0.10973961  0.87186276  0.83737243     0.03400
C1235       C  0.08072796  0.77475299  0.85475156     0.38100
C1236       C  0.09474573  0.93180109  0.86586051     0.38100
C1237       C  0.12933260  0.89114087  0.81040378     0.36500
C1238       C  0.03515979  0.81642731  0.89642123     0.36500
N1239       N  0.14375649  0.90676040  0.78774150    -0.38300
N1240       N  0.01407260  0.80122977  0.91103755    -0.38300
N1241       N  0.09968452  0.96334477  0.87067973    -0.37800
N1242       N  0.07789489  0.74297580  0.85300469    -0.37800
C1243       C  0.33930576  0.78905460  0.88007255    -0.04400
C1244       C  0.31451477  0.75638339  0.86654234    -0.01600
C1245       C  0.26926263  0.75793458  0.84873654     0.03400
C1246       C  0.24776178  0.79235061  0.84151952    -0.04400
C1247       C  0.27289807  0.82494799  0.85667301    -0.01500
C1248       C  0.31843789  0.82324272  0.87630755     0.03400
C1249       C  0.33542271  0.72099127  0.87048102     0.38100
C1250       C  0.25226801  0.86069704  0.85034360     0.38100
C1251       C  0.34321436  0.85719805  0.88929862     0.36500
C1252       C  0.24498035  0.72384036  0.83850479     0.36500
N1253       N  0.36248648  0.88448781  0.89931375    -0.38300
N1254       N  0.22568156  0.69663740  0.83028529    -0.38300
N1255       N  0.23712904  0.88970817  0.84630320    -0.37800
N1256       N  0.35190483  0.69277570  0.87304193    -0.37800
C1257       C  0.60280696  0.66137359  0.82313756    -0.04400
C1258       C  0.60210434  0.64930592  0.86862505    -0.01600
C1259       C  0.58138020  0.67083225  0.89073200     0.03400
C1260       C  0.56029382  0.70413992  0.86656534    -0.04400
C1261       C  0.55898797  0.71504251  0.81920707    -0.01500
C1262       C  0.58058745  0.69392320  0.79798418     0.03400
C1263       C  0.62140069  0.94730617  0.89128830     0.38100
C1264       C  0.53594109  0.74836031  0.79241817     0.38100
C1265       C  0.58034497  0.70587182  0.75044478     0.36500
C1266       C  0.58017439  0.65793903  0.93695948     0.36500
N1267       N  0.58013809  0.71544304  0.71255976    -0.38300
N1268       N  0.57871675  0.98076613  0.97348756    -0.38300
N1269       N  0.51730972  0.77472894  0.77072846    -0.37800
N1270       N  0.63656343  0.91881706  0.90822886    -0.37800
C1271       C  0.45368627  0.90143762  0.03724955    -0.04400
C1272       C  0.43269912  0.93466890  0.01275466    -0.01600
C1273       C  0.41060913  0.95566253  0.03347666     0.03400
C1274       C  0.40896269  0.94328833  0.07826020    -0.04400
C1275       C  0.43001296  0.91016092  0.10285113    -0.01500
C1276       C  0.45229417  0.88925212  0.08242357     0.03400
C1277       C  0.43470507  0.94780681  0.96711782     0.38100
C1278       C  0.42798555  0.89731301  0.14866254     0.38100
C1279       C  0.47255737  0.85450434  0.10696930     0.36500
C1280       C  0.39062179  0.99062443  0.00983089     0.36500
N1281       N  0.48864489  0.82677434  0.12640083    -0.38300
N1282       N  0.37472768  0.01866520  0.99161466    -0.38300
N1283       N  0.42615407  0.88734709  0.18516318    -0.37800
N1284       N  0.43596156  0.95850440  0.93057384    -0.37800
C1285       C  0.76896822  0.81453358  0.07215133    -0.04400
C1286       C  0.74452627  0.78162786  0.06073938    -0.01600
C1287       C  0.69871451  0.78312007  0.03793467     0.03400
C1288       C  0.67700151  0.81750408  0.02819232    -0.04400
C1289       C  0.70128794  0.85036548  0.03852375    -0.01500
C1290       C  0.74687039  0.84883690  0.05876602     0.03400
C1291       C  0.76644641  0.74609550  0.07498941     0.38100
C1292       C  0.67960177  0.88589070  0.02957138     0.38100
C1293       C  0.77099313  0.88264420  0.06544085     0.36500
C1294       C  0.67435078  0.74909098  0.02805241     0.36500
N1295       N  0.79025108  0.90955960  0.07063927    -0.38300
N1296       N  0.65514842  0.72187177  0.02032696    -0.38300
N1297       N  0.66251447  0.91425455  0.02329456    -0.37800
N1298       N  0.78377268  0.71770850  0.08617057    -0.37800
C1299       C  0.91106134  0.76685232  0.09331164    -0.04400
C1300       C  0.91978683  0.72928795  0.10663935    -0.01600
C1301       C  0.94418074  0.70873224  0.08875001     0.03400
C1302       C  0.95979013  0.72590280  0.05762963    -0.04400
C1303       C  0.95118617  0.76354074  0.04467254    -0.01500
C1304       C  0.92690197  0.78402942  0.06260473     0.03400
C1305       C  0.90328406  0.04522913  0.13819883     0.38100
C1306       C  0.96781884  0.78135416  0.01347458     0.38100
C1307       C  0.91811685  0.82279886  0.04943566     0.36500
C1308       C  0.95171912  0.00309538  0.10055661     0.36500
N1309       N  0.91109945  0.85369856  0.03885558    -0.38300
N1310       N  0.95749909  0.97195394  0.11003561    -0.38300
N1311       N  0.98100664  0.79578552  0.98865606    -0.37800
N1312       N  0.89011369  0.03139065  0.16347349    -0.37800
C1313       C  0.40390440  0.90827278  0.71138788    -0.04400
C1314       C  0.39254784  0.87080769  0.70196568    -0.01600
C1315       C  0.40594539  0.84594303  0.74388605     0.03400
C1316       C  0.43342727  0.85779697  0.79593189    -0.04400
C1317       C  0.44691780  0.89513123  0.80481879    -0.01500
C1318       C  0.43187169  0.92027624  0.76268374     0.03400
C1319       C  0.36701267  0.85779141  0.64870058     0.38100
C1320       C  0.47643247  0.90798121  0.85702079     0.38100
C1321       C  0.44451094  0.95871747  0.77216070     0.36500
C1322       C  0.38866304  0.80877639  0.73303348     0.36500
N1323       N  0.45466950  0.98935199  0.77955680    -0.38300
N1324       N  0.37451784  0.77928979  0.72437164    -0.38300
N1325       N  0.49996614  0.91863345  0.89845394    -0.37800
N1326       N  0.34698789  0.84742892  0.60624224    -0.37800
C1327       C  0.17782250  0.96737399  0.53978112    -0.04400
C1328       C  0.19637452  0.94779004  0.51355265    -0.01600
C1329       C  0.24162519  0.94957653  0.53150012     0.03400
C1330       C  0.26871404  0.96897506  0.57762622    -0.04400
C1331       C  0.25013943  0.65578771  0.60304783    -0.01500
C1332       C  0.20462858  0.65589637  0.58323163     0.03400
C1333       C  0.16926103  0.92477213  0.46936954     0.38100
C1334       C  0.27791108  0.67588905  0.65038929     0.38100
C1335       C  0.18546798  0.67817021  0.60828287     0.36500
C1336       C  0.26059409  0.93086772  0.50329400     0.36500
N1337       N  0.17068202  0.69635421  0.62842284    -0.38300
N1338       N  0.27604513  0.91657695  0.48067833    -0.38300
N1339       N  0.30006397  0.69168730  0.68836623    -0.37800
N1340       N  0.14794835  0.90601244  0.43439855    -0.37800
C1341       C  0.07294238  0.70095675  0.61350513    -0.04400
C1342       C  0.08094908  0.68908683  0.66387220    -0.01600
C1343       C  0.09789160  0.71374597  0.70612756     0.03400
C1344       C  0.10488657  0.75078551  0.69840234    -0.04400
C1345       C  0.09226866  0.76392031  0.64791751    -0.01500
C1346       C  0.07696432  0.73919559  0.60558782     0.03400
C1347       C  0.07264454  0.65144557  0.67343406     0.38100
C1348       C  0.09626985  0.80290161  0.63998327     0.38100
C1349       C  0.06815190  0.75348684  0.55512076     0.36500
C1350       C  0.10992848  0.70063509  0.75831702     0.36500
N1351       N  0.06159742  0.76543320  0.51528953    -0.38300
N1352       N  0.11978815  0.69010818  0.79991093    -0.38300
N1353       N  0.09920372  0.83401522  0.63367828    -0.37800
N1354       N  0.06577847  0.95507319  0.68143623    -0.37800
C1355       C  0.90996302  0.85167387  0.22597234    -0.04400
C1356       C  0.93970938  0.87898845  0.22891360    -0.01600
C1357       C  0.95670696  0.90404293  0.27074950     0.03400
C1358       C  0.94437257  0.90178544  0.31026138    -0.04400
C1359       C  0.91769999  0.87214303  0.30953368    -0.01500
C1360       C  0.90077913  0.84721284  0.26759667     0.03400
C1361       C  0.95167590  0.88244533  0.18791694     0.38100
C1362       C  0.90461345  0.86844946  0.34955488     0.38100
C1363       C  0.87316277  0.81718506  0.26679575     0.36500
C1364       C  0.98595101  0.93271890  0.27192644     0.36500
N1365       N  0.85107431  0.79331601  0.26608584    -0.38300
N1366       N  0.00879503  0.95565818  0.27191321    -0.38300
N1367       N  0.89391924  0.86535030  0.38118441    -0.37800
N1368       N  0.96182306  0.88518413  0.15577194    -0.37800
C1369       C  0.74473633  0.97141903  0.32803454    -0.04400
C1370       C  0.77300783  0.97985410  0.38106433    -0.01600
C1371       C  0.81863695  0.97950470  0.40077478     0.03400
C1372       C  0.83629415  0.97164076  0.36733867    -0.04400
C1373       C  0.80820195  0.96063538  0.31537736    -0.01500
C1374       C  0.76269732  0.96023937  0.29597829     0.03400
C1375       C  0.75533464  0.99042171  0.41506113     0.38100
C1376       C  0.82609331  0.94890859  0.28197626     0.38100
C1377       C  0.73431229  0.94787476  0.24304531     0.36500
C1378       C  0.84735401  0.65520191  0.45519405     0.36500
N1379       N  0.71167999  0.93797260  0.20089064    -0.38300
N1380       N  0.87016126  0.66211932  0.49861199    -0.38300
N1381       N  0.84009187  0.93946995  0.25513582    -0.37800
N1382       N  0.74159551  0.66522457  0.44263399    -0.37800
C1383       C  0.60811188  0.03381035  0.19745220    -0.04400
C1384       C  0.57897758  0.68890004  0.14651422    -0.01600
C1385       C  0.56549589  0.71348324  0.10386868     0.03400
C1386       C  0.58057845  0.75034393  0.11203664    -0.04400
C1387       C  0.60766667  0.76250421  0.16414244    -0.01500
C1388       C  0.62098287  0.73782766  0.20639212     0.03400
C1389       C  0.56324383  0.98451019  0.13710863     0.38100
C1390       C  0.62390573  0.80001773  0.17502918     0.38100
C1391       C  0.64817025  0.08397419  0.25918610     0.36500
C1392       C  0.53583647  0.70049960  0.05177141     0.36500
N1393       N  0.66992300  0.09422795  0.30137702    -0.38300
N1394       N  0.51229278  0.68959601  0.01049165    -0.38300
N1395       N  0.63684080  0.82988900  0.18402090    -0.37800
N1396       N  0.54993683  0.95475921  0.12891799    -0.37800
C1397       C  0.08148241  0.90988275  0.12204380    -0.04400
C1398       C  0.08663508  0.92224343  0.17098773    -0.01600
C1399       C  0.10486915  0.89873633  0.21477941     0.03400
C1400       C  0.11508976  0.86203851  0.20961098    -0.04400
C1401       C  0.10517441  0.84820955  0.16020394    -0.01500
C1402       C  0.08929181  0.87201538  0.11668609     0.03400
C1403       C  0.07284007  0.95891541  0.17699152     0.38100
C1404       C  0.11180102  0.80933534  0.15439371     0.38100
C1405       C  0.08273916  0.85710713  0.06741829     0.36500
C1406       C  0.11461584  0.91262060  0.26579162     0.36500
N1407       N  0.07783549  0.84452524  0.02859715    -0.38300
N1408       N  0.12291181  0.92364461  0.30664014    -0.38300
N1409       N  0.11657811  0.77827729  0.14959914    -0.37800
N1410       N  0.06193492  0.98802229  0.18236937    -0.37800
C1411       C  0.11028069  0.77414084  0.33799996    -0.04400
C1412       C  0.08219155  0.79248169  0.35307045    -0.01600
C1413       C  0.05669039  0.77206685  0.36944350     0.03400
C1414       C  0.05984054  0.73338068  0.37214452    -0.04400
C1415       C  0.08787244  0.71502658  0.35742386    -0.01500
C1416       C  0.11197398  0.73520220  0.33887529     0.03400
C1417       C  0.07876336  0.83235316  0.35102484     0.38100
C1418       C  0.09213543  0.00847400  0.36202700     0.38100
C1419       C  0.13635202  0.71576500  0.31773610     0.36500
C1420       C  0.02646594  0.79085338  0.38237414     0.36500
N1421       N  0.15531592  0.70030429  0.30021566    -0.38300
N1422       N  0.00214639  0.80608930  0.39210537    -0.38300
N1423       N  0.09581239  0.97681329  0.36664432    -0.37800
N1424       N  0.07516263  0.86409650  0.34875644    -0.37800
C1425       C  0.34520034  0.80539148  0.38028611    -0.04400
C1426       C  0.31543886  0.79390478  0.32909883    -0.01600
C1427       C  0.27025094  0.79413586  0.31185594     0.03400
C1428       C  0.25391079  0.80639334  0.34510798    -0.04400
C1429       C  0.28364647  0.81588502  0.39720155    -0.01500
C1430       C  0.32910919  0.81534534  0.41476107     0.03400
C1431       C  0.33107927  0.78133933  0.29382303     0.38100
C1432       C  0.26746112  0.82704227  0.43241948     0.38100
C1433       C  0.35913959  0.82649454  0.46769116     0.36500
C1434       C  0.24050003  0.78123870  0.25967734     0.36500
N1435       N  0.38320130  0.83524333  0.50996411    -0.38300
N1436       N  0.21706076  0.77090183  0.21804028    -0.38300
N1437       N  0.25437687  0.83548680  0.46054625    -0.37800
N1438       N  0.34298198  0.77143221  0.26513767    -0.37800
C1439       C  0.58836119  0.85287056  0.61592126    -0.04400
C1440       C  0.61464049  0.84092100  0.66845127    -0.01600
C1441       C  0.62570458  0.86552483  0.71012002     0.03400
C1442       C  0.61365923  0.90295274  0.70025930    -0.04400
C1443       C  0.58786430  0.91520199  0.64841217    -0.01500
C1444       C  0.57471157  0.89023222  0.60644313     0.03400
C1445       C  0.63311956  0.80395272  0.68037312     0.38100
C1446       C  0.57611600  0.95386353  0.63812525     0.38100
C1447       C  0.54723724  0.90331819  0.55368125     0.36500
C1448       C  0.65003994  0.85232345  0.76356964     0.36500
N1449       N  0.52541201  0.91381637  0.51155871    -0.38300
N1450       N  0.66920734  0.84167734  0.80607411    -0.38300
N1451       N  0.56663540  0.65138450  0.62984778    -0.37800
N1452       N  0.64812230  0.77462656  0.68998710    -0.37800
C1453       C  0.40979707  0.02321451  0.21856866    -0.04400
C1454       C  0.44335261  0.04848330  0.22764902    -0.01600
C1455       C  0.46400073  0.73437045  0.27513817     0.03400
C1456       C  0.44736488  0.73281318  0.31055304    -0.04400
C1457       C  0.41608355  0.70558099  0.30336922    -0.01500
C1458       C  0.39869885  0.68322977  0.25847149     0.03400
C1459       C  0.45499595  0.05647009  0.18725888     0.38100
C1460       C  0.39999872  0.70136542  0.34051741     0.38100
C1461       C  0.36930125  0.98696393  0.25337766     0.36500
C1462       C  0.50476260  0.75304674  0.28979737     0.36500
N1463       N  0.34596630  0.96318842  0.24933754    -0.38300
N1464       N  0.53835260  0.76637620  0.30251541    -0.38300
N1465       N  0.38684344  0.69806261  0.36983236    -0.37800
N1466       N  0.46399062  0.06314196  0.15488060    -0.37800
C1467       C  0.41179654  0.66379209  0.58524674    -0.04400
C1468       C  0.43190023  0.69730236  0.60849534    -0.01600
C1469       C  0.45734295  0.71606860  0.59061806     0.03400
C1470       C  0.46247726  0.70147874  0.54901626    -0.04400
C1471       C  0.44225768  0.66793362  0.52570430    -0.01500
C1472       C  0.41673888  0.64921958  0.54363470     0.03400
C1473       C  0.42544672  0.71284867  0.65003132     0.38100
C1474       C  0.44865856  0.65222173  0.48424221     0.38100
C1475       C  0.39528481  0.94867780  0.51928971     0.36500
C1476       C  0.47705444  0.75102132  0.61399627     0.36500
N1477       N  0.37789677  0.92161478  0.49944437    -0.38300
N1478       N  0.49276503  0.77887400  0.63268280    -0.38300
N1479       N  0.45409890  0.97309426  0.45165665    -0.37800
N1480       N  0.41999960  0.72519582  0.68295610    -0.37800
C1481       C  0.60330025  0.94115478  0.32357114    -0.04400
C1482       C  0.57871750  0.91053923  0.29571797    -0.01600
C1483       C  0.55770710  0.88853429  0.31655100     0.03400
C1484       C  0.56374019  0.89522821  0.36756797    -0.04400
C1485       C  0.58812739  0.92642339  0.39513928    -0.01500
C1486       C  0.60651036  0.94990463  0.37229553     0.03400
C1487       C  0.57576637  0.90110066  0.24584267     0.38100
C1488       C  0.59281035  0.93553708  0.44584308     0.38100
C1489       C  0.62693971  0.98417700  0.39732833     0.36500
C1490       C  0.52944769  0.85938634  0.28429647     0.36500
N1491       N  0.64244081  0.01212170  0.41575653    -0.38300
N1492       N  0.50609741  0.83719276  0.25682368    -0.38300
N1493       N  0.59692971  0.94325206  0.48637544    -0.37800
N1494       N  0.57356325  0.89312430  0.20632539    -0.37800
C1495       C  0.77762386  0.78922164  0.58026751    -0.04400
C1496       C  0.75244116  0.82139924  0.57318381    -0.01600
C1497       C  0.70682107  0.81898453  0.55236717     0.03400
C1498       C  0.68601806  0.78432128  0.53916685    -0.04400
C1499       C  0.71126684  0.75212938  0.54677857    -0.01500
C1500       C  0.75667955  0.75465106  0.56597151     0.03400
C1501       C  0.77373371  0.85679419  0.59037163     0.38100
C1502       C  0.69085006  0.71621988  0.53678928     0.38100
C1503       C  0.78197882  0.72153803  0.57139616     0.36500
C1504       C  0.68184243  0.85191699  0.54885885     0.36500
N1505       N  0.80223030  0.69517957  0.57578813    -0.38300
N1506       N  0.66212153  0.87815412  0.54671307    -0.38300
N1507       N  0.67483837  0.68749482  0.52992556    -0.37800
N1508       N  0.79075488  0.88497474  0.60426272    -0.37800
C1509       C  0.91969088  0.75522024  0.73332209    -0.04400
C1510       C  0.91023840  0.76130993  0.77449837    -0.01600
C1511       C  0.92463227  0.73602240  0.81615198     0.03400
C1512       C  0.94912139  0.70434894  0.81709093    -0.04400
C1513       C  0.96258341  0.70083272  0.77853010    -0.01500
C1514       C  0.94790765  0.72615392  0.73691158     0.03400
C1515       C  0.88429294  0.79314246  0.77298940     0.38100
C1516       C  0.99019870  0.67043130  0.77987005     0.38100
C1517       C  0.95993374  0.72086183  0.69618413     0.36500
C1518       C  0.91114889  0.74175246  0.85551663     0.36500
N1519       N  0.96985769  0.71661592  0.66404032    -0.38300
N1520       N  0.90010558  0.74657886  0.88657441    -0.38300
N1521       N  0.01155037  0.64607720  0.77961217    -0.37800
N1522       N  0.86346981  0.81842668  0.77161176    -0.37800
C1523       C  0.91754793  0.83639764  0.59398286    -0.04400
C1524       C  0.92615316  0.87390930  0.60728812    -0.01600
C1525       C  0.94840953  0.89497745  0.58715498     0.03400
C1526       C  0.96201460  0.87855535  0.55350653    -0.04400
C1527       C  0.95339587  0.84098133  0.54029513    -0.01500
C1528       C  0.93176010  0.81978014  0.56112859     0.03400
C1529       C  0.91200727  0.89076427  0.64170298     0.38100
C1530       C  0.96696392  0.82406447  0.50548302     0.38100
C1531       C  0.92460174  0.78077668  0.54934017     0.36500
C1532       C  0.95564179  0.93392251  0.59932291     0.36500
N1533       N  0.91917525  0.74963608  0.54010619    -0.38300
N1534       N  0.96114612  0.96502048  0.60883266    -0.38300
N1535       N  0.97737688  0.81053437  0.47733164    -0.37800
N1536       N  0.90076065  0.90410684  0.66924157    -0.37800
loop_ 
_geom_bond_atom_site_label_1 
_geom_bond_atom_site_label_2 
_geom_bond_distance 
_geom_bond_site_symmetry_2 
_ccdc_geom_bond_type 
C1            C2   1.402       .  A
C1            C6   1.399       .  A
C1          C485   1.484       .  S
C2            C3   1.401       .  A
C2            H7   1.084       .  S
C3            C4   1.404       .  A
C3          C471   1.491       .  S
C4            C5   1.404       .  A
C4            H8   1.084       .  S
C5            C6   1.399       .  A
C5          C499   1.477       .  S
C6            H9   1.084       .  S
O10         Ni16   1.923       .  S
O10          C31   1.270       .  A
O11         Ni34   1.896       .  S
O11          C20   1.261       .  A
O12         Ni16   1.923       .  S
O12         Ni34   1.912       .  S
O12         Ni28   1.919       .  S
O12          H35   0.966       .  S
C13         C474   1.486       .  S
C13          O30   1.271       .  A
C13          O22   1.273       .  A
O14         Ni33   1.930       .  S
O14          C20   1.268       .  A
O15         Ni33   1.890       .  S
O15          C17   1.266       .  A
Ni16         O19   1.931       .  S
Ni16         O21   1.908       .  S
C17         C415   1.499       .  S
C17          O27   1.280       .  A
O18         Ni34   1.913       .  S
O18          C24   1.269       .  A
O19          C24   1.273       .  A
C20         C446   1.479       .  S
O21          C23   1.270       .  A
O22         Ni33   1.927       .  S
C23         C432   1.492       .  S
C23          O29   1.271       .  A
C24         C401   1.494       .  S
H25          O26   0.965       .  S
O26         Ni34   1.916       .  S
O26         Ni28   1.922       .  S
O26         Ni33   1.920       .  S
O27         Ni28   1.949       .  S
Ni28         O32   1.922       .  S
Ni28         O30   1.911       .  S
O29         Ni34   1.929       .  S
C31         C460   1.498       .  S
C31          O32   1.273       .  A
C36          C37   1.395       .  A
C36          C41   1.398       .  A
C36         C376   1.478       .  S
C37          C38   1.402       .  A
C37          H42   1.084       .  S
C38          C39   1.412       .  A
C38         C387   1.492       .  S
C39          C40   1.409       .  A
C39          H43   1.083       .  S
C40          C41   1.403       .  A
C40         C404   1.497       .  S
C41          H44   1.084       .  S
C45          C46   1.405       .  A
C45          C50   1.404       .  A
C45         C359   1.492       .  S
C46          C47   1.407       .  A
C46          H51   1.084       .  S
C47          C48   1.404       .  A
C47         C457   1.486       .  S
C48          C49   1.402       .  A
C48          H52   1.084       .  S
C49          C50   1.402       .  A
C49         C345   1.493       .  S
C50          H53   1.084       .  S
O54       Ni1084   1.945       .  S
O54          C75   1.276   1_655  A
O55         Ni78   1.899       .  S
O55          C64   1.265       .  A
O56         Ni60   1.905       .  S
O56         Ni78   1.898       .  S
O56         Ni72   1.903   1_655  S
O56         H591   0.964       .  S
C57         C303   1.476       .  S
C57          O74   1.273       .  A
C57          O66   1.275       .  A
O58         Ni77   1.935       .  S
O58          C64   1.272   1_455  A
O59       Ni1101   1.904       .  S
O59          C61   1.269   1_565  A
Ni60         O63   1.934       .  S
Ni60         O65   1.903       .  S
Ni60        O566   1.945       .  S
C61         C317   1.504       .  S
C61          O71   1.272       .  A
O62         Ni78   1.912       .  S
O62          C68   1.275       .  A
O63          C68   1.279       .  A
C64         C502   1.477       .  S
O65          C67   1.269       .  A
O66         Ni77   1.922       .  S
C67         C334   1.488       .  S
C67          O73   1.269       .  A
C68         C348   1.486       .  S
H69          O70   0.971       .  S
O70         Ni78   1.906   1_455  S
O70         Ni72   1.896       .  S
O70         Ni77   1.903       .  S
O71       Ni1096   1.926   1_545  S
Ni72         O74   1.919       .  S
Ni72        O583   1.926       .  S
Ni72        O588   1.893       .  S
O73         Ni78   1.916       .  S
C75         C390   1.477       .  S
C75          O76   1.265       .  A
O76       Ni1096   1.893   1_545  S
Ni77        O571   1.904       .  S
H79        O1080   0.964   1_545  S
C80          C81   1.401       .  A
C80         C597   1.401       .  A
C80         C289   1.484       .  S
C81          C82   1.399       .  A
C81          H86   1.085       .  S
C82         C595   1.401       .  A
C82         C306   1.481       .  S
C83          C84   1.403       .  A
C83        C1106   1.401       .  A
C83          H87   1.084   1_565  S
C84          C85   1.403       .  A
C84         C443   1.479       .  S
C85        C1104   1.401       .  A
C85          H88   1.084       .  S
C89          C90   1.396       .  A
C89          C94   1.405       .  A
C89         C331   1.483       .  S
C90          C91   1.395       .  A
C90          H95   1.084       .  S
C91          C92   1.399       .  A
C91         C275   1.469       .  S
C92          C93   1.402       .  A
C92          H96   1.084       .  S
C93          C94   1.405       .  A
C93         C261   1.492       .  S
C94          H97   1.084       .  S
O98        Ni104   1.922       .  S
O98         C119   1.267       .  A
O99        Ni122   1.916       .  S
O99         C108   1.270       .  A
O100       Ni104   1.922   1_556  S
O100       Ni122   1.920       .  S
O100       Ni116   1.913       .  S
O100        H123   0.965       .  S
C101        C219   1.485       .  S
C101        O118   1.268       .  A
C101        O110   1.272       .  A
O102       Ni121   1.919       .  S
O102        C108   1.268       .  A
O103       Ni121   1.897       .  S
O103        C105   1.267       .  A
Ni104       O107   1.922       .  S
Ni104       O109   1.895       .  S
C105        C292   1.497       .  S
C105        O115   1.275       .  A
O106       Ni122   1.907       .  S
O106        C112   1.270   1_556  A
O107        C112   1.271       .  A
C108        C236   1.487       .  S
O109        C111   1.267       .  A
O110       Ni121   1.926       .  S
C111        C362   1.502       .  S
C111        O117   1.280       .  A
C112        C264   1.484       .  S
H113        O114   0.961       .  S
O114       Ni122   1.914       .  S
O114       Ni116   1.914       .  S
O114       Ni121   1.921       .  S
O115       Ni116   1.942       .  S
Ni116       O120   1.902       .  S
Ni116       O118   1.903       .  S
O117       Ni122   1.952   1_554  S
C119        C247   1.479       .  S
C119        O120   1.263   1_554  A
C124        C125   1.399       .  A
C124        C129   1.395       .  A
C124        C320   1.476       .  S
C125        C126   1.405       .  A
C125        H130   1.084       .  S
C126        C127   1.405       .  A
C126        C222   1.496       .  S
C127        C128   1.406       .  A
C127        H131   1.083       .  S
C128        C129   1.399       .  A
C128        C205   1.479       .  S
C129        H132   1.084       .  S
C133        C134   1.400       .  A
C133        C650   1.404       .  A
C133        C418   1.486       .  S
C134        C135   1.399       .  A
C134        H139   1.085       .  S
C135        C648   1.402       .  A
C135        C191   1.488       .  S
C136        C137   1.405       .  A
C136       C1159   1.402       .  A
C136        H140   1.084       .  S
C137        C138   1.406       .  A
C137        C233   1.484       .  S
C138       C1157   1.404       .  A
C138        H141   1.084       .  S
C142        C143   1.405       .  A
C142        C147   1.402       .  A
C142        C429   1.491       .  S
C143        C144   1.402       .  A
C143        H148   1.084       .  S
C144        C145   1.401       .  A
C144        C177   1.487       .  S
C145        C146   1.402       .  A
C145        H149   1.084       .  S
C146        C147   1.401       .  A
C146        C250   1.481       .  S
C147        H150   1.084       .  S
O151      Ni1181   1.935       .  S
O151        C172   1.272   1_455  A
O152       Ni175   1.892       .  S
O152        C161   1.264       .  A
O153       Ni157   1.901   1_556  S
O153       Ni175   1.890       .  S
O153       Ni169   1.903   1_455  S
O153        H688   0.966       .  S
C154        C194   1.485       .  S
C154        O171   1.274       .  A
C154        O163   1.277       .  A
O155       Ni174   1.935   1_455  S
O155        C161   1.273       .  A
O156      Ni1198   1.903       .  S
O156        C158   1.269   1_565  A
Ni157       O160   1.924       .  S
Ni157       O162   1.904       .  S
Ni157       O663   1.935       .  S
C158        C488   1.496       .  S
C158        O168   1.270       .  A
O159       Ni175   1.917       .  S
O159        C165   1.275   1_556  A
O160        C165   1.277       .  A
C161        C208   1.470       .  S
O162        C164   1.269       .  A
O163       Ni174   1.929       .  S
C164        C373   1.502       .  S
C164        O170   1.273       .  A
C165        C180   1.488       .  S
H166        O167   0.968       .  S
O167       Ni175   1.905   1_655  S
O167       Ni169   1.898       .  S
O167       Ni174   1.906       .  S
O168      Ni1193   1.922   1_545  S
Ni169       O171   1.911       .  S
Ni169       O680   1.923       .  S
Ni169       O685   1.890       .  S
O170       Ni175   1.929   1_554  S
C172        C278   1.468       .  S
C172        O173   1.263   1_554  A
O173      Ni1193   1.890   1_545  S
Ni174       O668   1.903       .  S
H176       O1177   0.966   1_545  S
C177        C178   1.413       .  A
C177        C182   1.412       .  A
C178        C179   1.410       .  A
C178        C183   1.452       .  S
C179        C180   1.416       .  A
C179        C186   1.452       .  S
C180        C181   1.415       .  A
C181        C182   1.411       .  A
C181        C696   1.451       .  S
C182        C697   1.451       .  S
C183        N190   1.157       .  T
C184       C1205   1.451       .  S
C184        N189   1.157   1_554  T
C185       C1206   1.451       .  S
C185        N187   1.157       .  T
C186        N188   1.157       .  T
C191        C196   1.413       .  A
C191        C704   1.413       .  A
C192        C193   1.409       .  A
C192       C1215   1.413       .  A
C192        C197   1.453       .  S
C193       C1218   1.416       .  A
C193        C200   1.453       .  S
C194        C195   1.413       .  A
C194        C705   1.416       .  A
C195        C196   1.412       .  A
C195        C198   1.450       .  S
C196        C199   1.451       .  S
C197        N204   1.158   1_565  T
C198        N203   1.157   1_556  T
C199        N201   1.157       .  T
C200        N202   1.158       .  T
C205        C206   1.413       .  A
C205        C210   1.411       .  A
C206        C207   1.409       .  A
C206        C211   1.451       .  S
C207        C208   1.409       .  A
C207        C214   1.449       .  S
C208        C209   1.409       .  A
C209        C210   1.405       .  A
C209        C212   1.452       .  S
C210        C213   1.451       .  S
C211        N218   1.157       .  T
C212        N217   1.157       .  T
C213        N215   1.157       .  T
C214        N216   1.157       .  T
C219        C220   1.413       .  A
C219        C224   1.414       .  A
C220        C221   1.410       .  A
C220        C225   1.452       .  S
C221        C222   1.417       .  A
C221        C228   1.452       .  S
C222        C223   1.416       .  A
C223        C224   1.411       .  A
C223        C226   1.450       .  S
C224        C227   1.452       .  S
C225        N232   1.157       .  T
C226        N231   1.157       .  T
C227        N229   1.157       .  T
C228        N230   1.157       .  T
C233        C234   1.411       .  A
C233        C238   1.408   1_565  A
C234        C235   1.413   1_565  A
C234       C1263   1.449       .  S
C235        C236   1.413       .  A
C235        C242   1.450   1_545  S
C236        C237   1.419       .  A
C237        C238   1.410       .  A
C237        C240   1.453       .  S
C238        C241   1.452       .  S
C239        C746   1.449       .  S
C239        N246   1.157       .  T
C240        N245   1.158       .  T
C241        N243   1.157       .  T
C242       N1268   1.157       .  T
N244        C754   1.157       .  T
C247        C248   1.412       .  A
C247        C252   1.415       .  A
C248        C249   1.410       .  A
C248        C253   1.450   1_554  S
C249        C250   1.411       .  A
C249        C256   1.451       .  S
C250        C251   1.410       .  A
C251        C252   1.407       .  A
C251        C254   1.452       .  S
C252        C255   1.453       .  S
C253        N260   1.157       .  T
C254        N259   1.157       .  T
C255        N257   1.158       .  T
C256        N258   1.157   1_554  T
C261        C262   1.416       .  A
C261        C266   1.415       .  A
C262        C263   1.410       .  A
C262        C267   1.452       .  S
C263        C264   1.414       .  A
C263        C270   1.452       .  S
C264        C265   1.414       .  A
C265        C266   1.410       .  A
C265        C268   1.451       .  S
C266        C269   1.452       .  S
C267        N274   1.157       .  T
C268        N273   1.157       .  T
C269        N271   1.157       .  T
C270        N272   1.157       .  T
C275        C276   1.409       .  A
C275        C280   1.408       .  A
C276        C277   1.407       .  A
C276       C1305   1.452       .  S
C277        C278   1.412       .  A
C277       C1308   1.451       .  S
C278        C279   1.410       .  A
C279        C280   1.404       .  A
C279        C282   1.450       .  S
C280        C283   1.451       .  S
C281        C788   1.452       .  S
C281        N288   1.157       .  T
C282        N287   1.156   1_554  T
C283        N285   1.157       .  T
C284        C789   1.451       .  S
C284        N286   1.157       .  T
C289        C290   1.408       .  A
C289        C294   1.411       .  A
C290        C291   1.407       .  A
C290        C295   1.454       .  S
C291        C292   1.422       .  A
C291        C298   1.453       .  S
C292        C293   1.420       .  A
C293        C294   1.414       .  A
C293        C296   1.450       .  S
C294        C297   1.452       .  S
C295        N302   1.157       .  T
C296        N301   1.157       .  T
C297        N299   1.157       .  T
C298        N300   1.157       .  T
C303        C304   1.410       .  A
C303        C820   1.412       .  A
C304        C305   1.410       .  A
C304        C309   1.448       .  S
C305        C306   1.411       .  A
C305        C312   1.450       .  S
C306        C819   1.410       .  A
C307        C308   1.409       .  A
C307       C1330   1.410       .  A
C307        C310   1.451   1_565  S
C308       C1327   1.412       .  A
C308        C311   1.451   1_565  S
C309        N316   1.156       .  T
C310        N315   1.157       .  T
C311        N313   1.157       .  T
C312        N314   1.157       .  T
C317        C318   1.426       .  A
C317        C322   1.426       .  A
C318        C319   1.407       .  A
C318        C323   1.453   1_545  S
C319        C320   1.405       .  A
C319        C326   1.453       .  S
C320        C321   1.404       .  A
C321        C322   1.411       .  A
C321        C324   1.452       .  S
C322        C325   1.450       .  S
C323       N1354   1.158       .  T
C324        N329   1.157       .  T
C325        N327   1.157       .  T
C326        N328   1.157       .  T
N330        C835   1.158       .  T
C331        C332   1.413       .  A
C331        C336   1.409       .  A
C332        C333   1.408       .  A
C332        C337   1.452       .  S
C333        C334   1.416       .  A
C333        C340   1.452       .  S
C334        C335   1.421       .  A
C335        C336   1.407       .  A
C335        C338   1.453       .  S
C336        C339   1.453       .  S
C337        N344   1.157       .  T
C338        N343   1.158       .  T
C339        N341   1.157       .  T
C340        N342   1.157   1_655  T
C345        C346   1.416       .  A
C345        C350   1.414       .  A
C346        C347   1.413       .  A
C346        C351   1.451       .  S
C347        C348   1.413       .  A
C347        C866   1.451       .  S
C348        C349   1.415       .  A
C349        C350   1.410       .  A
C349        C352   1.453       .  S
C350        C353   1.452       .  S
C351        N870   1.157       .  T
C352        N357   1.157       .  T
C353        N355   1.158       .  T
C354       C1371   1.451       .  S
C354        N356   1.157       .  T
N358       C1375   1.157       .  T
C359        C872   1.412       .  A
C359        C876   1.410       .  A
C360        C361   1.416       .  A
C360       C1383   1.413       .  A
C360       C1389   1.450   1_545  S
C361        C362   1.418       .  A
C361        C368   1.451       .  S
C362        C363   1.425       .  A
C363        C364   1.410       .  A
C363        C366   1.453       .  S
C364       C1383   1.410       .  A
C364       C1391   1.454       .  S
C365        C872   1.450       .  S
C365        N372   1.157       .  T
C366        N371   1.158       .  T
C367        C876   1.454       .  S
C367        N369   1.157       .  T
C368        N370   1.157       .  T
C373        C374   1.426       .  A
C373        C378   1.423       .  A
C374        C375   1.408       .  A
C374        C379   1.453       .  S
C375        C376   1.404       .  A
C375        C382   1.451       .  S
C376        C377   1.406       .  A
C377        C378   1.411       .  A
C377        C380   1.452       .  S
C378        C381   1.450       .  S
C379        N386   1.158       .  T
C380        N385   1.157       .  T
C381        N383   1.157       .  T
C382        N384   1.157       .  T
C387        C388   1.418       .  A
C387        C392   1.414       .  A
C388        C389   1.411       .  A
C388        C393   1.451       .  S
C389        C390   1.407       .  A
C389        C396   1.450       .  S
C390        C391   1.410       .  A
C391        C392   1.409       .  A
C391       C1418   1.450       .  S
C392        C395   1.451       .  S
C393        N400   1.157       .  T
C394        C903   1.450       .  S
C394        N399   1.156       .  T
C395        N397   1.157       .  T
C396        N398   1.157       .  T
C401        C402   1.416       .  A
C401        C406   1.416       .  A
C402        C403   1.410       .  A
C402        C407   1.452       .  S
C403        C404   1.414       .  A
C403        C410   1.452       .  S
C404        C405   1.415       .  A
C405        C406   1.417       .  A
C405        C408   1.450       .  S
C406        C409   1.450       .  S
C407        N414   1.157       .  T
C408        N413   1.157       .  T
C409        N411   1.157       .  T
C410        N412   1.157       .  T
C415        C416   1.425       .  A
C415        C420   1.418       .  A
C416        C417   1.407       .  A
C416        C421   1.454       .  S
C417        C418   1.409       .  A
C417        C424   1.454       .  S
C418        C419   1.411       .  A
C419        C420   1.414       .  A
C419        C422   1.451       .  S
C420        C423   1.449       .  S
C421        N428   1.158       .  T
C422        N939   1.157       .  T
C423        N425   1.157       .  T
C424        N426   1.157       .  T
N427       C1446   1.157       .  T
C429        C430   1.414       .  A
C429        C946   1.415       .  A
C430        C943   1.408       .  A
C430        C435   1.451       .  S
C431        C432   1.411       .  A
C431       C1454   1.408       .  A
C431        C438   1.449       .  S
C432        C433   1.417       .  A
C433        C434   1.410       .  A
C433        C436   1.451       .  S
C434       C1453   1.415       .  A
C434       C1461   1.452   1_545  S
C435        N442   1.158       .  T
C436        N441   1.157       .  T
C437        C946   1.452       .  S
C437        N439   1.157       .  T
C438        N440   1.157       .  T
C443        C444   1.409   1_565  A
C443        C448   1.411       .  A
C444        C445   1.408       .  A
C444        C449   1.451       .  S
C445        C446   1.414       .  A
C445        C452   1.452       .  S
C446        C447   1.412       .  A
C447        C448   1.410   1_545  A
C447        C450   1.450   1_545  S
C448       C1475   1.450       .  S
C449        N456   1.157       .  T
C450       N1479   1.157       .  T
C451        C960   1.450       .  S
C451        N453   1.157       .  T
C452        N454   1.157       .  T
N455        C962   1.157       .  T
C457        C458   1.405       .  A
C457        C462   1.410       .  A
C458        C459   1.409       .  A
C458        C463   1.452       .  S
C459        C460   1.423       .  A
C459        C466   1.449       .  S
C460        C461   1.417       .  A
C461        C462   1.416       .  A
C461        C464   1.449       .  S
C462        C465   1.449       .  S
C463        N470   1.157       .  T
C464        N469   1.157       .  T
C465        N467   1.157       .  T
C466        N468   1.156       .  T
C471        C472   1.413       .  A
C471        C476   1.415       .  A
C472        C473   1.412       .  A
C472        C477   1.452       .  S
C473        C474   1.415       .  A
C473        C480   1.451       .  S
C474        C475   1.413       .  A
C475        C476   1.411       .  A
C475        C478   1.450       .  S
C476        C479   1.452       .  S
C477        N484   1.157       .  T
C478        N483   1.157       .  T
C479        N481   1.157       .  T
C480        N482   1.157       .  T
C485        C486   1.410       .  A
C485        C490   1.410       .  A
C486        C487   1.409       .  A
C486        C491   1.453       .  S
C487        C488   1.423       .  A
C487        C494   1.452       .  S
C488        C489   1.420       .  A
C489        C490   1.408       .  A
C489        C492   1.451       .  S
C490        C493   1.453       .  S
C491        N498   1.157       .  T
C492        N497   1.157   1_645  T
C493        N495   1.157       .  T
C494        N496   1.158       .  T
C499        C500   1.410       .  A
C499        C504   1.410       .  A
C500        C501   1.408       .  A
C500        C505   1.451       .  S
C501        C502   1.413       .  A
C501        C508   1.451       .  S
C502        C503   1.412       .  A
C503        C504   1.409       .  A
C503        C506   1.449       .  S
C504        C507   1.451       .  S
C505        N512   1.157       .  T
C506        N511   1.156       .  T
C507        N509   1.157       .  T
C508        N510   1.157       .  T
C513        C514   1.402       .  A
C513        C518   1.399       .  A
C513        C997   1.484       .  S
C514        C515   1.401       .  A
C514        H519   1.084       .  S
C515        C516   1.404       .  A
C515        C983   1.491       .  S
C516        C517   1.404       .  A
C516        H520   1.084       .  S
C517        C518   1.400       .  A
C517       C1011   1.477       .  S
C518        H521   1.084       .  S
O522       Ni528   1.923       .  S
O522        C543   1.270       .  A
O523       Ni546   1.896       .  S
O523        C532   1.261       .  A
O524       Ni528   1.924       .  S
O524       Ni546   1.912       .  S
O524       Ni540   1.919       .  S
O524        H547   0.966       .  S
C525        C986   1.486       .  S
C525        O542   1.271       .  A
C525        O534   1.273       .  A
O526       Ni545   1.930       .  S
O526        C532   1.268       .  A
O527       Ni545   1.890       .  S
O527        C529   1.266       .  A
Ni528       O531   1.932       .  S
Ni528       O533   1.908       .  S
C529        C927   1.499       .  S
C529        O539   1.280       .  A
O530       Ni546   1.913       .  S
O530        C536   1.269       .  A
O531        C536   1.273       .  A
C532        C958   1.479       .  S
O533        C535   1.270       .  A
O534       Ni545   1.927       .  S
C535        C944   1.491       .  S
C535        O541   1.271       .  A
C536        C913   1.494       .  S
H537        O538   0.965       .  S
O538       Ni546   1.916       .  S
O538       Ni540   1.922       .  S
O538       Ni545   1.920       .  S
O539       Ni540   1.949       .  S
Ni540       O544   1.922       .  S
Ni540       O542   1.911       .  S
O541       Ni546   1.929       .  S
C543        C972   1.498       .  S
C543        O544   1.273       .  A
C548        C549   1.395       .  A
C548        C553   1.398       .  A
C548        C888   1.478       .  S
C549        C550   1.402       .  A
C549        H554   1.084       .  S
C550        C551   1.412       .  A
C550        C899   1.492       .  S
C551        C552   1.409       .  A
C551        H555   1.083       .  S
C552        C553   1.403       .  A
C552        C916   1.497       .  S
C553        H556   1.084       .  S
C557        C558   1.405       .  A
C557        C562   1.404       .  A
C557        C871   1.492       .  S
C558        C559   1.407       .  A
C558        H563   1.084       .  S
C559        C560   1.404       .  A
C559        C969   1.486       .  S
C560        C561   1.402       .  A
C560        H564   1.084       .  S
C561        C562   1.402       .  A
C561        C857   1.493       .  S
C562        H565   1.084       .  S
O566        C587   1.275   1_655  A
O567       Ni590   1.899       .  S
O567        C576   1.265       .  A
O568       Ni572   1.905       .  S
O568       Ni590   1.898       .  S
O568       Ni584   1.903   1_655  S
O568       H1103   0.964       .  S
C569        C815   1.476       .  S
C569        O586   1.273       .  A
C569        O578   1.275       .  A
O570       Ni589   1.935       .  S
O570        C576   1.272   1_455  A
O571        C573   1.269       .  A
Ni572      O1078   1.944       .  S
Ni572       O575   1.933       .  S
Ni572       O577   1.903       .  S
C573        C829   1.504       .  S
C573        O583   1.272       .  A
O574       Ni590   1.912       .  S
O574        C580   1.275       .  A
O575        C580   1.279       .  A
C576       C1014   1.477       .  S
O577        C579   1.269       .  A
O578       Ni589   1.922       .  S
C579        C846   1.488       .  S
C579        O585   1.269       .  A
C580        C860   1.486       .  S
H581        O582   0.971       .  S
O582       Ni590   1.906   1_455  S
O582       Ni584   1.896       .  S
O582       Ni589   1.903       .  S
Ni584      O1095   1.926       .  S
Ni584      O1100   1.893       .  S
Ni584       O586   1.919       .  S
O585       Ni590   1.916       .  S
C587        C902   1.477       .  S
C587        O588   1.265       .  A
Ni589      O1083   1.904       .  S
C592        C593   1.401       .  A
C592       C1109   1.401       .  A
C592        C801   1.484       .  S
C593        C594   1.399       .  A
C593        H598   1.085       .  S
C594       C1107   1.401       .  A
C594        C818   1.481       .  S
C595        C596   1.403       .  A
C595        H599   1.084       .  S
C596        C597   1.403       .  A
C596        C955   1.479       .  S
C597        H600   1.084       .  S
C601        C602   1.396       .  A
C601        C606   1.405       .  A
C601        C843   1.483       .  S
C602        C603   1.395       .  A
C602        H607   1.084       .  S
C603        C604   1.399       .  A
C603        C787   1.470       .  S
C604        C605   1.402       .  A
C604        H608   1.084       .  S
C605        C606   1.405       .  A
C605        C773   1.492       .  S
C606        H609   1.084       .  S
O610       Ni616   1.921       .  S
O610        C631   1.267       .  A
O611       Ni634   1.916       .  S
O611        C620   1.270       .  A
O612       Ni616   1.922   1_556  S
O612       Ni634   1.919       .  S
O612       Ni628   1.913       .  S
O612        H635   0.965       .  S
C613        C731   1.485       .  S
C613        O630   1.269       .  A
C613        O622   1.272       .  A
O614       Ni633   1.919       .  S
O614        C620   1.268       .  A
O615       Ni633   1.897       .  S
O615        C617   1.267       .  A
Ni616       O619   1.922       .  S
Ni616       O621   1.895       .  S
C617        C804   1.497       .  S
C617        O627   1.275       .  A
O618       Ni634   1.907       .  S
O618        C624   1.270   1_556  A
O619        C624   1.271       .  A
C620        C748   1.487       .  S
O621        C623   1.267       .  A
O622       Ni633   1.927       .  S
C623        C874   1.502       .  S
C623        O629   1.280       .  A
C624        C776   1.484       .  S
H625        O626   0.961       .  S
O626       Ni634   1.914       .  S
O626       Ni628   1.914       .  S
O626       Ni633   1.921       .  S
O627       Ni628   1.942       .  S
Ni628       O632   1.902       .  S
Ni628       O630   1.903       .  S
O629       Ni634   1.952   1_554  S
C631        C759   1.479       .  S
C631        O632   1.263   1_554  A
C636        C637   1.399       .  A
C636        C641   1.395       .  A
C636        C832   1.477       .  S
C637        C638   1.405       .  A
C637        H642   1.084       .  S
C638        C639   1.405       .  A
C638        C734   1.496       .  S
C639        C640   1.406       .  A
C639        H643   1.083       .  S
C640        C641   1.400       .  A
C640        C717   1.479       .  S
C641        H644   1.084       .  S
C645        C646   1.400       .  A
C645       C1162   1.404       .  A
C645        C930   1.486       .  S
C646        C647   1.399       .  A
C646        H651   1.085       .  S
C647       C1160   1.402       .  A
C647        C703   1.488       .  S
C648        C649   1.405       .  A
C648        H652   1.084       .  S
C649        C650   1.406       .  A
C649        C745   1.484       .  S
C650        H653   1.084       .  S
C654        C655   1.405       .  A
C654        C659   1.402       .  A
C654        C941   1.491       .  S
C655        C656   1.402       .  A
C655        H660   1.084       .  S
C656        C657   1.401       .  A
C656        C689   1.487       .  S
C657        C658   1.402       .  A
C657        H661   1.084       .  S
C658        C659   1.401       .  A
C658        C762   1.481       .  S
C659        H662   1.084       .  S
O663        C684   1.272   1_455  A
O664       Ni687   1.893       .  S
O664        C673   1.264       .  A
O665       Ni669   1.901   1_556  S
O665       Ni687   1.890       .  S
O665       Ni681   1.903   1_455  S
O665       H1200   0.966       .  S
C666        C706   1.485       .  S
C666        O683   1.274       .  A
C666        O675   1.277       .  A
O667       Ni686   1.935   1_455  S
O667        C673   1.273       .  A
O668        C670   1.269       .  A
Ni669      O1175   1.935       .  S
Ni669       O672   1.923       .  S
Ni669       O674   1.904       .  S
C670       C1000   1.496       .  S
C670        O680   1.270       .  A
O671       Ni687   1.917       .  S
O671        C677   1.275   1_556  A
O672        C677   1.277       .  A
C673        C720   1.470       .  S
O674        C676   1.269       .  A
O675       Ni686   1.930       .  S
C676        C885   1.502       .  S
C676        O682   1.273       .  A
C677        C692   1.488       .  S
H678        O679   0.968       .  S
O679       Ni687   1.905   1_655  S
O679       Ni681   1.898       .  S
O679       Ni686   1.906       .  S
Ni681      O1192   1.922       .  S
Ni681      O1197   1.890       .  S
Ni681       O683   1.911       .  S
O682       Ni687   1.930   1_554  S
C684        C790   1.469       .  S
C684        O685   1.264   1_554  A
Ni686      O1180   1.903       .  S
C689        C690   1.413       .  A
C689        C694   1.412       .  A
C690        C691   1.410       .  A
C690        C695   1.452       .  S
C691        C692   1.416       .  A
C691        C698   1.452       .  S
C692        C693   1.415       .  A
C693        C694   1.411       .  A
C693       C1208   1.451       .  S
C694       C1209   1.451       .  S
C695        N702   1.157       .  T
C696        N701   1.157   1_554  T
C697        N699   1.157       .  T
C698        N700   1.157       .  T
C703       C1216   1.413       .  A
C703        C708   1.414       .  A
C704        C705   1.409       .  A
C704        C709   1.453       .  S
C705        C712   1.453       .  S
C706       C1217   1.416       .  A
C706        C707   1.413       .  A
C707        C708   1.412       .  A
C707        C710   1.450       .  S
C708        C711   1.451       .  S
C709        N716   1.158       .  T
C710        N715   1.157   1_556  T
C711        N713   1.157       .  T
C712        N714   1.158       .  T
C717        C718   1.413       .  A
C717        C722   1.411       .  A
C718        C719   1.409       .  A
C718        C723   1.451       .  S
C719        C720   1.409       .  A
C719        C726   1.449       .  S
C720        C721   1.410       .  A
C721        C722   1.405       .  A
C721        C724   1.452       .  S
C722        C725   1.451       .  S
C723        N730   1.157       .  T
C724        N729   1.157       .  T
C725        N727   1.157       .  T
C726        N728   1.157       .  T
C731        C732   1.413       .  A
C731        C736   1.414       .  A
C732        C733   1.410       .  A
C732        C737   1.452       .  S
C733        C734   1.417       .  A
C733        C740   1.452       .  S
C734        C735   1.416       .  A
C735        C736   1.411       .  A
C735        C738   1.450       .  S
C736        C739   1.452       .  S
C737        N744   1.157       .  T
C738        N743   1.157       .  T
C739        N741   1.157       .  T
C740        N742   1.157       .  T
C745        C746   1.411       .  A
C745        C750   1.408       .  A
C746        C747   1.413       .  A
C747        C748   1.413       .  A
C747        C754   1.450       .  S
C748        C749   1.419       .  A
C749        C750   1.410       .  A
C749        C752   1.453       .  S
C750        C753   1.452       .  S
C751       C1258   1.449       .  S
C751        N758   1.157       .  T
C752        N757   1.158       .  T
C753        N755   1.157       .  T
N756       C1266   1.157       .  T
C759        C760   1.412       .  A
C759        C764   1.415       .  A
C760        C761   1.410       .  A
C760        C765   1.450   1_554  S
C761        C762   1.411       .  A
C761        C768   1.451       .  S
C762        C763   1.410       .  A
C763        C764   1.407       .  A
C763        C766   1.452       .  S
C764        C767   1.453       .  S
C765        N772   1.157       .  T
C766        N771   1.157       .  T
C767        N769   1.158       .  T
C768        N770   1.157   1_554  T
C773        C774   1.416       .  A
C773        C778   1.415       .  A
C774        C775   1.410       .  A
C774        C779   1.452       .  S
C775        C776   1.414       .  A
C775        C782   1.452       .  S
C776        C777   1.414       .  A
C777        C778   1.410       .  A
C777        C780   1.451       .  S
C778        C781   1.452       .  S
C779        N786   1.157       .  T
C780        N785   1.157       .  T
C781        N783   1.157       .  T
C782        N784   1.157       .  T
C787        C788   1.409       .  A
C787        C792   1.408       .  A
C788        C789   1.407       .  A
C789        C790   1.412       .  A
C790        C791   1.410       .  A
C791        C792   1.404       .  A
C791        C794   1.450       .  S
C792        C795   1.451       .  S
C793       C1300   1.452       .  S
C793        N800   1.157       .  T
C794        N799   1.156   1_554  T
C795        N797   1.157       .  T
C796       C1301   1.451       .  S
C796        N798   1.157       .  T
C801        C802   1.408       .  A
C801        C806   1.411       .  A
C802        C803   1.407       .  A
C802        C807   1.454       .  S
C803        C804   1.422       .  A
C803        C810   1.453       .  S
C804        C805   1.420       .  A
C805        C806   1.414       .  A
C805        C808   1.450       .  S
C806        C809   1.452       .  S
C807        N814   1.157       .  T
C808        N813   1.157       .  T
C809        N811   1.157       .  T
C810        N812   1.157       .  T
C815        C816   1.410       .  A
C815       C1332   1.412       .  A
C816        C817   1.410       .  A
C816        C821   1.448       .  S
C817        C818   1.411       .  A
C817        C824   1.450       .  S
C818       C1331   1.410       .  A
C819        C820   1.409       .  A
C819        C822   1.451       .  S
C820        C823   1.451       .  S
C821        N828   1.156       .  T
C822        N827   1.157       .  T
C823        N825   1.157       .  T
C824        N826   1.157       .  T
C829        C830   1.426       .  A
C829        C834   1.426       .  A
C830        C831   1.407       .  A
C830        C835   1.453       .  S
C831        C832   1.405       .  A
C831        C838   1.453       .  S
C832        C833   1.404       .  A
C833        C834   1.411       .  A
C833        C836   1.452       .  S
C834        C837   1.450       .  S
C836        N841   1.157       .  T
C837        N839   1.157       .  T
C838        N840   1.157       .  T
N842       C1347   1.158       .  T
C843        C844   1.414       .  A
C843        C848   1.409       .  A
C844        C845   1.408       .  A
C844        C849   1.452       .  S
C845        C846   1.416       .  A
C845        C852   1.452       .  S
C846        C847   1.421       .  A
C847        C848   1.407       .  A
C847        C850   1.453       .  S
C848        C851   1.453       .  S
C849        N856   1.157       .  T
C850        N855   1.158       .  T
C851        N853   1.157       .  T
C852        N854   1.157   1_655  T
C857        C858   1.416       .  A
C857        C862   1.414       .  A
C858        C859   1.413       .  A
C858        C863   1.451       .  S
C859        C860   1.413       .  A
C859       C1378   1.451       .  S
C860        C861   1.415       .  A
C861        C862   1.410       .  A
C861        C864   1.453       .  S
C862        C865   1.452       .  S
C863       N1382   1.157       .  T
C864        N869   1.157       .  T
C865        N867   1.158       .  T
C866        N868   1.157       .  T
C871       C1384   1.412       .  A
C871       C1388   1.410       .  A
C872        C873   1.415       .  A
C873        C874   1.418       .  A
C873        C880   1.451       .  S
C874        C875   1.425       .  A
C875        C876   1.410       .  A
C875        C878   1.453       .  S
C877       C1384   1.450       .  S
C877        N884   1.157       .  T
C878        N883   1.158       .  T
C879       C1388   1.454       .  S
C879        N881   1.157       .  T
C880        N882   1.157       .  T
C885        C886   1.426       .  A
C885        C890   1.423       .  A
C886        C887   1.409       .  A
C886        C891   1.453       .  S
C887        C888   1.404       .  A
C887        C894   1.451       .  S
C888        C889   1.406       .  A
C889        C890   1.411       .  A
C889        C892   1.452       .  S
C890        C893   1.450       .  S
C891        N898   1.158       .  T
C892        N897   1.157       .  T
C893        N895   1.157       .  T
C894        N896   1.157       .  T
C899        C900   1.418       .  A
C899        C904   1.414       .  A
C900        C901   1.411       .  A
C900        C905   1.451       .  S
C901        C902   1.407       .  A
C901        C908   1.450       .  S
C902        C903   1.410       .  A
C903        C904   1.409       .  A
C904        C907   1.451       .  S
C905        N912   1.157       .  T
C906       C1415   1.450       .  S
C906        N911   1.157       .  T
C907        N909   1.157       .  T
C908        N910   1.157       .  T
C913        C914   1.416       .  A
C913        C918   1.416       .  A
C914        C915   1.410       .  A
C914        C919   1.452       .  S
C915        C916   1.414       .  A
C915        C922   1.452       .  S
C916        C917   1.415       .  A
C917        C918   1.417       .  A
C917        C920   1.450       .  S
C918        C921   1.450       .  S
C919        N926   1.157       .  T
C920        N925   1.157       .  T
C921        N923   1.157       .  T
C922        N924   1.157       .  T
C927        C928   1.425       .  A
C927        C932   1.418       .  A
C928        C929   1.407       .  A
C928        C933   1.454       .  S
C929        C930   1.409       .  A
C929        C936   1.454       .  S
C930        C931   1.411       .  A
C931        C932   1.414       .  A
C931        C934   1.451       .  S
C932        C935   1.449       .  S
C933        N940   1.158       .  T
C934       N1451   1.157       .  T
C935        N937   1.157       .  T
C936        N938   1.157       .  T
C941        C942   1.414       .  A
C941       C1458   1.415       .  A
C942       C1455   1.408       .  A
C942        C947   1.451       .  S
C943        C944   1.411       .  A
C943        C950   1.449       .  S
C944        C945   1.417       .  A
C945        C946   1.410       .  A
C945        C948   1.451       .  S
C947        N954   1.158       .  T
C948        N953   1.157       .  T
C949       C1458   1.452       .  S
C949        N951   1.157       .  T
C950        N952   1.157       .  T
C955        C956   1.409       .  A
C955        C960   1.411       .  A
C956        C957   1.408       .  A
C956        C961   1.451       .  S
C957        C958   1.414       .  A
C957        C964   1.452       .  S
C958        C959   1.412       .  A
C959        C960   1.410       .  A
C959        C962   1.450       .  S
C961        N968   1.157       .  T
C963       C1472   1.450       .  S
C963        N965   1.157       .  T
C964        N966   1.157       .  T
N967       C1474   1.157       .  T
C969        C970   1.405       .  A
C969        C974   1.410       .  A
C970        C971   1.409       .  A
C970        C975   1.452       .  S
C971        C972   1.423       .  A
C971        C978   1.449       .  S
C972        C973   1.417       .  A
C973        C974   1.416       .  A
C973        C976   1.449       .  S
C974        C977   1.449       .  S
C975        N982   1.157       .  T
C976        N981   1.157       .  T
C977        N979   1.157       .  T
C978        N980   1.156       .  T
C983        C984   1.413       .  A
C983        C988   1.415       .  A
C984        C985   1.412       .  A
C984        C989   1.452       .  S
C985        C986   1.415       .  A
C985        C992   1.451       .  S
C986        C987   1.413       .  A
C987        C988   1.411       .  A
C987        C990   1.450       .  S
C988        C991   1.452       .  S
C989        N996   1.157       .  T
C990        N995   1.157       .  T
C991        N993   1.157       .  T
C992        N994   1.157       .  T
C997        C998   1.410       .  A
C997       C1002   1.410       .  A
C998        C999   1.409       .  A
C998       C1003   1.453       .  S
C999       C1000   1.423       .  A
C999       C1006   1.452       .  S
C1000      C1001   1.420       .  A
C1001      C1002   1.409       .  A
C1001      C1004   1.451       .  S
C1002      C1005   1.453       .  S
C1003      N1010   1.157       .  T
C1004      N1009   1.157   1_655  T
C1005      N1007   1.157       .  T
C1006      N1008   1.158       .  T
C1011      C1012   1.410       .  A
C1011      C1016   1.410       .  A
C1012      C1013   1.408       .  A
C1012      C1017   1.451       .  S
C1013      C1014   1.413       .  A
C1013      C1020   1.451       .  S
C1014      C1015   1.412       .  A
C1015      C1016   1.409       .  A
C1015      C1018   1.449       .  S
C1016      C1019   1.451       .  S
C1017      N1024   1.157       .  T
C1018      N1023   1.156       .  T
C1019      N1021   1.157       .  T
C1020      N1022   1.157       .  T
C1025      C1026   1.402       .  A
C1025      C1030   1.399       .  A
C1025      C1509   1.484       .  S
C1026      C1027   1.401       .  A
C1026      H1031   1.084       .  S
C1027      C1028   1.404       .  A
C1027      C1495   1.491       .  S
C1028      C1029   1.404       .  A
C1028      H1032   1.084       .  S
C1029      C1030   1.399       .  A
C1029      C1523   1.477       .  S
C1030      H1033   1.084       .  S
O1034     Ni1040   1.923       .  S
O1034      C1055   1.270       .  A
O1035     Ni1058   1.896       .  S
O1035      C1044   1.261       .  A
O1036     Ni1040   1.924       .  S
O1036     Ni1058   1.912       .  S
O1036     Ni1052   1.919       .  S
O1036      H1059   0.966       .  S
C1037      C1498   1.486       .  S
C1037      O1054   1.271       .  A
C1037      O1046   1.273       .  A
O1038     Ni1057   1.930       .  S
O1038      C1044   1.268       .  A
O1039     Ni1057   1.890       .  S
O1039      C1041   1.266       .  A
Ni1040     O1043   1.931       .  S
Ni1040     O1045   1.908       .  S
C1041      C1439   1.499       .  S
C1041      O1051   1.280       .  A
O1042     Ni1058   1.913       .  S
O1042      C1048   1.269       .  A
O1043      C1048   1.273       .  A
C1044      C1470   1.478       .  S
O1045      C1047   1.270       .  A
O1046     Ni1057   1.927       .  S
C1047      C1456   1.492       .  S
C1047      O1053   1.271       .  A
C1048      C1425   1.493       .  S
H1049      O1050   0.965       .  S
O1050     Ni1058   1.916       .  S
O1050     Ni1052   1.922       .  S
O1050     Ni1057   1.920       .  S
O1051     Ni1052   1.949       .  S
Ni1052     O1056   1.922       .  S
Ni1052     O1054   1.911       .  S
O1053     Ni1058   1.929       .  S
C1055      C1484   1.498       .  S
C1055      O1056   1.273       .  A
C1060      C1061   1.395       .  A
C1060      C1065   1.398       .  A
C1060      C1400   1.478       .  S
C1061      C1062   1.402       .  A
C1061      H1066   1.084       .  S
C1062      C1063   1.412       .  A
C1062      C1411   1.492       .  S
C1063      C1064   1.408       .  A
C1063      H1067   1.083       .  S
C1064      C1065   1.403       .  A
C1064      C1428   1.497       .  S
C1065      H1068   1.084       .  S
C1069      C1070   1.405   1_545  A
C1069      C1074   1.404       .  A
C1069      C1383   1.492       .  S
C1070      C1071   1.407       .  A
C1070      H1075   1.084       .  S
C1071      C1072   1.404       .  A
C1071      C1481   1.486       .  S
C1072      C1073   1.402       .  A
C1072      H1076   1.084       .  S
C1073      C1074   1.402   1_565  A
C1073      C1369   1.493       .  S
C1074      H1077   1.084       .  S
O1078      C1099   1.275   1_655  A
O1079     Ni1102   1.899       .  S
O1079      C1088   1.265       .  A
O1080     Ni1084   1.905   1_565  S
O1080     Ni1102   1.898       .  S
O1080     Ni1096   1.903   1_655  S
C1081      C1327   1.476       .  S
C1081      O1098   1.273       .  A
C1081      O1090   1.275       .  A
O1082     Ni1101   1.935       .  S
O1082      C1088   1.272   1_455  A
O1083      C1085   1.269       .  A
Ni1084     O1087   1.934   1_545  S
Ni1084     O1089   1.903   1_545  S
C1085      C1341   1.504       .  S
C1085      O1095   1.272       .  A
O1086     Ni1102   1.912       .  S
O1086      C1092   1.275       .  A
O1087      C1092   1.279       .  A
C1088      C1526   1.477       .  S
O1089      C1091   1.269       .  A
O1090     Ni1101   1.922       .  S
C1091      C1358   1.488       .  S
C1091      O1097   1.269       .  A
C1092      C1372   1.487       .  S
H1093      O1094   0.971       .  S
O1094     Ni1102   1.906   1_455  S
O1094     Ni1096   1.896       .  S
O1094     Ni1101   1.903       .  S
Ni1096     O1098   1.919       .  S
O1097     Ni1102   1.916       .  S
C1099      C1414   1.477       .  S
C1099      O1100   1.265       .  A
C1104      C1105   1.401       .  A
C1104      C1313   1.484       .  S
C1105      C1106   1.399       .  A
C1105      H1110   1.084       .  S
C1106      C1330   1.481       .  S
C1107      C1108   1.403       .  A
C1107      H1111   1.084       .  S
C1108      C1109   1.403       .  A
C1108      C1467   1.479       .  S
C1109      H1112   1.084       .  S
C1113      C1114   1.396       .  A
C1113      C1118   1.405       .  A
C1113      C1355   1.483       .  S
C1114      C1115   1.395       .  A
C1114      H1119   1.084       .  S
C1115      C1116   1.399       .  A
C1115      C1299   1.469       .  S
C1116      C1117   1.402       .  A
C1116      H1120   1.084       .  S
C1117      C1118   1.405       .  A
C1117      C1285   1.492       .  S
C1118      H1121   1.084       .  S
O1122     Ni1128   1.922       .  S
O1122      C1143   1.267       .  A
O1123     Ni1146   1.916       .  S
O1123      C1132   1.270       .  A
O1124     Ni1128   1.922   1_556  S
O1124     Ni1146   1.920       .  S
O1124     Ni1140   1.913       .  S
O1124      H1147   0.966       .  S
C1125      C1243   1.485       .  S
C1125      O1142   1.269       .  A
C1125      O1134   1.272       .  A
O1126     Ni1145   1.919       .  S
O1126      C1132   1.268       .  A
O1127     Ni1145   1.897       .  S
O1127      C1129   1.267       .  A
Ni1128     O1131   1.922       .  S
Ni1128     O1133   1.895       .  S
C1129      C1316   1.497       .  S
C1129      O1139   1.275       .  A
O1130     Ni1146   1.907       .  S
O1130      C1136   1.270   1_556  A
O1131      C1136   1.271       .  A
C1132      C1260   1.488       .  S
O1133      C1135   1.267       .  A
O1134     Ni1145   1.927       .  S
C1135      C1386   1.502       .  S
C1135      O1141   1.280       .  A
C1136      C1288   1.484       .  S
H1137      O1138   0.961       .  S
O1138     Ni1146   1.914       .  S
O1138     Ni1140   1.914       .  S
O1138     Ni1145   1.921       .  S
O1139     Ni1140   1.942       .  S
Ni1140     O1144   1.902       .  S
Ni1140     O1142   1.903       .  S
O1141     Ni1146   1.952   1_554  S
C1143      C1271   1.479       .  S
C1143      O1144   1.263   1_554  A
C1148      C1149   1.399       .  A
C1148      C1153   1.395       .  A
C1148      C1344   1.476       .  S
C1149      C1150   1.405       .  A
C1149      H1154   1.084       .  S
C1150      C1151   1.405       .  A
C1150      C1246   1.496       .  S
C1151      C1152   1.406       .  A
C1151      H1155   1.083       .  S
C1152      C1153   1.399       .  A
C1152      C1229   1.479       .  S
C1153      H1156   1.084       .  S
C1157      C1158   1.400       .  A
C1157      C1442   1.486       .  S
C1158      C1159   1.399       .  A
C1158      H1163   1.085       .  S
C1159      C1215   1.488       .  S
C1160      C1161   1.405       .  A
C1160      H1164   1.084       .  S
C1161      C1162   1.406       .  A
C1161      C1257   1.484       .  S
C1162      H1165   1.084       .  S
C1166      C1167   1.405       .  A
C1166      C1171   1.402   1_545  A
C1166      C1453   1.491       .  S
C1167      C1168   1.402   1_545  A
C1167      H1172   1.084       .  S
C1168      C1169   1.401       .  A
C1168      C1201   1.487       .  S
C1169      C1170   1.402       .  A
C1169      H1173   1.084       .  S
C1170      C1171   1.401       .  A
C1170      C1274   1.481       .  S
C1171      H1174   1.084       .  S
O1175      C1196   1.272   1_455  A
O1176     Ni1199   1.892       .  S
O1176      C1185   1.264       .  A
O1177     Ni1181   1.901   1_566  S
O1177     Ni1199   1.890       .  S
O1177     Ni1193   1.904   1_455  S
C1178      C1218   1.485       .  S
C1178      O1195   1.274       .  A
C1178      O1187   1.277       .  A
O1179     Ni1198   1.935   1_455  S
O1179      C1185   1.273       .  A
O1180      C1182   1.269       .  A
Ni1181     O1184   1.923       .  S
Ni1181     O1186   1.905   1_545  S
C1182      C1512   1.496       .  S
C1182      O1192   1.270       .  A
O1183     Ni1199   1.917       .  S
O1183      C1189   1.275   1_556  A
O1184      C1189   1.277   1_545  A
C1185      C1232   1.470       .  S
O1186      C1188   1.269       .  A
O1187     Ni1198   1.930       .  S
C1188      C1397   1.502       .  S
C1188      O1194   1.273       .  A
C1189      C1204   1.488       .  S
H1190      O1191   0.968       .  S
O1191     Ni1199   1.906   1_655  S
O1191     Ni1193   1.898       .  S
O1191     Ni1198   1.906       .  S
Ni1193     O1195   1.911       .  S
O1194     Ni1199   1.929   1_554  S
C1196      C1302   1.469       .  S
C1196      O1197   1.264   1_554  A
C1201      C1202   1.413       .  A
C1201      C1206   1.412   1_565  A
C1202      C1203   1.410       .  A
C1202      C1207   1.452       .  S
C1203      C1204   1.416       .  A
C1203      C1210   1.452       .  S
C1204      C1205   1.415   1_565  A
C1205      C1206   1.411       .  A
C1207      N1214   1.157       .  T
C1208      N1213   1.157   1_554  T
C1209      N1211   1.157       .  T
C1210      N1212   1.157       .  T
C1215      C1220   1.414       .  A
C1216      C1217   1.409       .  A
C1216      C1221   1.453       .  S
C1217      C1224   1.453       .  S
C1218      C1219   1.413       .  A
C1219      C1220   1.412       .  A
C1219      C1222   1.450       .  S
C1220      C1223   1.451       .  S
C1221      N1228   1.158       .  T
C1222      N1227   1.157   1_556  T
C1223      N1225   1.157       .  T
C1224      N1226   1.158       .  T
C1229      C1230   1.413       .  A
C1229      C1234   1.411       .  A
C1230      C1231   1.409       .  A
C1230      C1235   1.451       .  S
C1231      C1232   1.409       .  A
C1231      C1238   1.449       .  S
C1232      C1233   1.409       .  A
C1233      C1234   1.405       .  A
C1233      C1236   1.452       .  S
C1234      C1237   1.451       .  S
C1235      N1242   1.157       .  T
C1236      N1241   1.157       .  T
C1237      N1239   1.157       .  T
C1238      N1240   1.157       .  T
C1243      C1244   1.413       .  A
C1243      C1248   1.414       .  A
C1244      C1245   1.410       .  A
C1244      C1249   1.452       .  S
C1245      C1246   1.417       .  A
C1245      C1252   1.452       .  S
C1246      C1247   1.416       .  A
C1247      C1248   1.411       .  A
C1247      C1250   1.450       .  S
C1248      C1251   1.452       .  S
C1249      N1256   1.157       .  T
C1250      N1255   1.157       .  T
C1251      N1253   1.157       .  T
C1252      N1254   1.157       .  T
C1257      C1258   1.411       .  A
C1257      C1262   1.408       .  A
C1258      C1259   1.413       .  A
C1259      C1260   1.413       .  A
C1259      C1266   1.450       .  S
C1260      C1261   1.419       .  A
C1261      C1262   1.410       .  A
C1261      C1264   1.453       .  S
C1262      C1265   1.452       .  S
C1263      N1270   1.157       .  T
C1264      N1269   1.158       .  T
C1265      N1267   1.157       .  T
C1271      C1272   1.412       .  A
C1271      C1276   1.415       .  A
C1272      C1273   1.410       .  A
C1272      C1277   1.450   1_554  S
C1273      C1274   1.411       .  A
C1273      C1280   1.451       .  S
C1274      C1275   1.410       .  A
C1275      C1276   1.407       .  A
C1275      C1278   1.452       .  S
C1276      C1279   1.453       .  S
C1277      N1284   1.157       .  T
C1278      N1283   1.157       .  T
C1279      N1281   1.158       .  T
C1280      N1282   1.157   1_564  T
C1285      C1286   1.416       .  A
C1285      C1290   1.415       .  A
C1286      C1287   1.410       .  A
C1286      C1291   1.452       .  S
C1287      C1288   1.414       .  A
C1287      C1294   1.452       .  S
C1288      C1289   1.414       .  A
C1289      C1290   1.410       .  A
C1289      C1292   1.451       .  S
C1290      C1293   1.452       .  S
C1291      N1298   1.157       .  T
C1292      N1297   1.157       .  T
C1293      N1295   1.157       .  T
C1294      N1296   1.157       .  T
C1299      C1300   1.409       .  A
C1299      C1304   1.408       .  A
C1300      C1301   1.407       .  A
C1301      C1302   1.412       .  A
C1302      C1303   1.410       .  A
C1303      C1304   1.404       .  A
C1303      C1306   1.450       .  S
C1304      C1307   1.451       .  S
C1305      N1312   1.157       .  T
C1306      N1311   1.156   1_554  T
C1307      N1309   1.157       .  T
C1308      N1310   1.157   1_545  T
C1313      C1314   1.408       .  A
C1313      C1318   1.411       .  A
C1314      C1315   1.407       .  A
C1314      C1319   1.454       .  S
C1315      C1316   1.422       .  A
C1315      C1322   1.453       .  S
C1316      C1317   1.420       .  A
C1317      C1318   1.414       .  A
C1317      C1320   1.450       .  S
C1318      C1321   1.452       .  S
C1319      N1326   1.157       .  T
C1320      N1325   1.157       .  T
C1321      N1323   1.157       .  T
C1322      N1324   1.157       .  T
C1327      C1328   1.410       .  A
C1328      C1329   1.410       .  A
C1328      C1333   1.448       .  S
C1329      C1330   1.411       .  A
C1329      C1336   1.450       .  S
C1331      C1332   1.409       .  A
C1331      C1334   1.451       .  S
C1332      C1335   1.451       .  S
C1333      N1340   1.156       .  T
C1334      N1339   1.157       .  T
C1335      N1337   1.157       .  T
C1336      N1338   1.157       .  T
C1341      C1342   1.426       .  A
C1341      C1346   1.426       .  A
C1342      C1343   1.407       .  A
C1342      C1347   1.453       .  S
C1343      C1344   1.405       .  A
C1343      C1350   1.453       .  S
C1344      C1345   1.404       .  A
C1345      C1346   1.411       .  A
C1345      C1348   1.452       .  S
C1346      C1349   1.450       .  S
C1348      N1353   1.157       .  T
C1349      N1351   1.157       .  T
C1350      N1352   1.157       .  T
C1355      C1356   1.413       .  A
C1355      C1360   1.409       .  A
C1356      C1357   1.408       .  A
C1356      C1361   1.452       .  S
C1357      C1358   1.416       .  A
C1357      C1364   1.452       .  S
C1358      C1359   1.421       .  A
C1359      C1360   1.407       .  A
C1359      C1362   1.453       .  S
C1360      C1363   1.453       .  S
C1361      N1368   1.157       .  T
C1362      N1367   1.158       .  T
C1363      N1365   1.157       .  T
C1364      N1366   1.157   1_655  T
C1369      C1370   1.416       .  A
C1369      C1374   1.414       .  A
C1370      C1371   1.413       .  A
C1370      C1375   1.451       .  S
C1371      C1372   1.413       .  A
C1372      C1373   1.415       .  A
C1373      C1374   1.410       .  A
C1373      C1376   1.453       .  S
C1374      C1377   1.452       .  S
C1376      N1381   1.157       .  T
C1377      N1379   1.158       .  T
C1378      N1380   1.157       .  T
C1384      C1385   1.416       .  A
C1385      C1386   1.418       .  A
C1385      C1392   1.451       .  S
C1386      C1387   1.425       .  A
C1387      C1388   1.410       .  A
C1387      C1390   1.453       .  S
C1389      N1396   1.157       .  T
C1390      N1395   1.158       .  T
C1391      N1393   1.157       .  T
C1392      N1394   1.157       .  T
C1397      C1398   1.426       .  A
C1397      C1402   1.423       .  A
C1398      C1399   1.409       .  A
C1398      C1403   1.453       .  S
C1399      C1400   1.404       .  A
C1399      C1406   1.451       .  S
C1400      C1401   1.406       .  A
C1401      C1402   1.411       .  A
C1401      C1404   1.452       .  S
C1402      C1405   1.450       .  S
C1403      N1410   1.158       .  T
C1404      N1409   1.157       .  T
C1405      N1407   1.157       .  T
C1406      N1408   1.157       .  T
C1411      C1412   1.418       .  A
C1411      C1416   1.414       .  A
C1412      C1413   1.411       .  A
C1412      C1417   1.451       .  S
C1413      C1414   1.407       .  A
C1413      C1420   1.450       .  S
C1414      C1415   1.410       .  A
C1415      C1416   1.409       .  A
C1416      C1419   1.451       .  S
C1417      N1424   1.157       .  T
C1418      N1423   1.156   1_545  T
C1419      N1421   1.157       .  T
C1420      N1422   1.157       .  T
C1425      C1426   1.416       .  A
C1425      C1430   1.416       .  A
C1426      C1427   1.410       .  A
C1426      C1431   1.452       .  S
C1427      C1428   1.414       .  A
C1427      C1434   1.452       .  S
C1428      C1429   1.415       .  A
C1429      C1430   1.417       .  A
C1429      C1432   1.450       .  S
C1430      C1433   1.450       .  S
C1431      N1438   1.157       .  T
C1432      N1437   1.157       .  T
C1433      N1435   1.157       .  T
C1434      N1436   1.157       .  T
C1439      C1440   1.425       .  A
C1439      C1444   1.418       .  A
C1440      C1441   1.408       .  A
C1440      C1445   1.454       .  S
C1441      C1442   1.409       .  A
C1441      C1448   1.454       .  S
C1442      C1443   1.411       .  A
C1443      C1444   1.414       .  A
C1443      C1446   1.451       .  S
C1444      C1447   1.449       .  S
C1445      N1452   1.158       .  T
C1447      N1449   1.157       .  T
C1448      N1450   1.157       .  T
C1453      C1454   1.415       .  A
C1454      C1459   1.451       .  S
C1455      C1456   1.411       .  A
C1455      C1462   1.449       .  S
C1456      C1457   1.417       .  A
C1457      C1458   1.410       .  A
C1457      C1460   1.451       .  S
C1459      N1466   1.158       .  T
C1460      N1465   1.157       .  T
C1461      N1463   1.157       .  T
C1462      N1464   1.157       .  T
C1467      C1468   1.409       .  A
C1467      C1472   1.411       .  A
C1468      C1469   1.408       .  A
C1468      C1473   1.451       .  S
C1469      C1470   1.414       .  A
C1469      C1476   1.452       .  S
C1470      C1471   1.412       .  A
C1471      C1472   1.410       .  A
C1471      C1474   1.450       .  S
C1473      N1480   1.157       .  T
C1475      N1477   1.157       .  T
C1476      N1478   1.157       .  T
C1481      C1482   1.405       .  A
C1481      C1486   1.410       .  A
C1482      C1483   1.409       .  A
C1482      C1487   1.452       .  S
C1483      C1484   1.423       .  A
C1483      C1490   1.449       .  S
C1484      C1485   1.417       .  A
C1485      C1486   1.416       .  A
C1485      C1488   1.449       .  S
C1486      C1489   1.449       .  S
C1487      N1494   1.157       .  T
C1488      N1493   1.157       .  T
C1489      N1491   1.157   1_565  T
C1490      N1492   1.156       .  T
C1495      C1496   1.413       .  A
C1495      C1500   1.415       .  A
C1496      C1497   1.412       .  A
C1496      C1501   1.452       .  S
C1497      C1498   1.415       .  A
C1497      C1504   1.451       .  S
C1498      C1499   1.413       .  A
C1499      C1500   1.411       .  A
C1499      C1502   1.450       .  S
C1500      C1503   1.452       .  S
C1501      N1508   1.157       .  T
C1502      N1507   1.157       .  T
C1503      N1505   1.157       .  T
C1504      N1506   1.157       .  T
C1509      C1510   1.410       .  A
C1509      C1514   1.410       .  A
C1510      C1511   1.409       .  A
C1510      C1515   1.453       .  S
C1511      C1512   1.423       .  A
C1511      C1518   1.452       .  S
C1512      C1513   1.420       .  A
C1513      C1514   1.409       .  A
C1513      C1516   1.451       .  S
C1514      C1517   1.453       .  S
C1515      N1522   1.157       .  T
C1516      N1521   1.157   1_655  T
C1517      N1519   1.157       .  T
C1518      N1520   1.158       .  T
C1523      C1524   1.410       .  A
C1523      C1528   1.410       .  A
C1524      C1525   1.408       .  A
C1524      C1529   1.451       .  S
C1525      C1526   1.413       .  A
C1525      C1532   1.451       .  S
C1526      C1527   1.412       .  A
C1527      C1528   1.409       .  A
C1527      C1530   1.449       .  S
C1528      C1531   1.451       .  S
C1529      N1536   1.157       .  T
C1530      N1535   1.156       .  T
C1531      N1533   1.157       .  T
C1532      N1534   1.157       .  T
