geometry optimzed in LAMMPS
_audit_creation_date              2020-11-30 
_audit_creation_method            'lammps2cif' 
_symmetry_space_group_name_H-M    'P1' 
_symmetry_Int_Tables_number       1 
_symmetry_cell_setting            triclinic 
loop_ 
_symmetry_equiv_pos_as_xyz 
  x,y,z 
_cell_length_a                    53.76942842 
_cell_length_b                    53.65560705099958 
_cell_length_c                    70.31677134269654 
_cell_angle_alpha                 90.25866733677255 
_cell_angle_beta                  89.66697441079633 
_cell_angle_gamma                 122.72241943571657 
loop_ 
_atom_site_label 
_atom_site_type_symbol 
_atom_site_fract_x 
_atom_site_fract_y 
_atom_site_fract_z 
_atom_site_charge 
C1          C  0.32309736  0.85615736  0.24653591    -0.00300
C2          C  0.50964001  0.84387849  0.24584370    -0.00300
C3          C  0.51173249  0.65157595  0.24726907    -0.00300
C4          C  0.30724494  0.45575259  0.25108078    -0.00300
C5          C  0.11841146  0.45932300  0.25554032    -0.00300
C6          C  0.12149797  0.65240475  0.24971465    -0.00300
O7          O  0.94267766  0.23241807  0.89973774    -0.55600
C8          C  0.04972604  0.28715112  0.88494971     0.77000
O9          O  0.96134911  0.29679592  0.88342075    -0.55500
C10         C  0.94579274  0.21424823  0.89018806     0.77000
C11         C  0.99697222  0.28809038  0.93342427     0.79400
Cd12       Cd  0.99162419  0.27628905  0.89289376     1.37500
O13         O  0.02603205  0.26453326  0.87903255    -0.55600
O14         O  0.98788200  0.26287407  0.92636600    -0.54400
C15         C  0.96959388  0.30159077  0.86623332     0.79400
O16         O  0.00366769  0.30859574  0.92157123    -0.56800
O17         O  0.04684857  0.30611948  0.89375976    -0.55200
O18         O  0.97034021  0.22487387  0.88175119    -0.55200
O19         O  0.98982879  0.29727325  0.86193061    -0.54400
O20         O  0.74640024  0.00867110  0.86435533    -0.55600
C21         C  0.68332398  0.91752903  0.87411208     0.77000
O22         O  0.66257508  0.96566324  0.90737896    -0.56700
C23         C  0.76164681  0.01542250  0.87937039     0.77000
C24         C  0.67749768  0.00747326  0.85595696     0.79400
Cd25       Cd  0.69792854  0.97775379  0.88045496     1.37500
O26         O  0.70408163  0.93947960  0.86525807    -0.55600
O27         O  0.69045751  0.01814561  0.87159770    -0.54400
C28         C  0.68262994  0.97917124  0.91980468     0.79400
O29         O  0.67183298  0.98183773  0.85206361    -0.56800
O30         O  0.66786764  0.92311260  0.88474243    -0.55200
O31         O  0.74747616  0.00304088  0.89444208    -0.55200
O32         O  0.70891965  0.99227366  0.91372551    -0.54400
O33         O  0.63889827  0.66654691  0.12087585    -0.55600
C34         C  0.67744317  0.66485972  0.07176936     0.77000
O35         O  0.70600234  0.73316916  0.12564024    -0.56700
C36         C  0.64116315  0.65947274  0.13760076     0.77000
C37         C  0.73954279  0.67851213  0.11882874     0.79400
Cd38       Cd  0.69028733  0.68488999  0.11074816     1.37500
O39         O  0.65854104  0.65047767  0.08477390    -0.55600
O40         O  0.71567631  0.65768543  0.11165222    -0.54400
C41         C  0.70332550  0.74465386  0.11076430     0.79400
O42         O  0.74010126  0.70169319  0.12330616    -0.56800
O43         O  0.70165981  0.68751186  0.07703487    -0.55200
O44         O  0.66498729  0.66096259  0.14119124    -0.55200
O45         O  0.69703191  0.72935709  0.09578035    -0.54400
O46         O  0.31101477  0.29910571  0.08173686    -0.55600
C47         C  0.29624495  0.33234175  0.13715813     0.77000
O48         O  0.22709866  0.25967267  0.12521410    -0.56700
C49         C  0.29625341  0.30331853  0.06967342     0.77000
C50         C  0.28429452  0.23702140  0.11235172     0.79400
Cd51       Cd  0.27554972  0.28568167  0.10854036     1.37500
O52         O  0.29568608  0.33764528  0.11971304    -0.55600
O53         O  0.30561188  0.26368912  0.11424722    -0.54400
C54         C  0.21291057  0.26160195  0.11162492     0.79400
O55         O  0.25924708  0.23314667  0.10932506    -0.56800
O56         O  0.29063463  0.30677599  0.14087495    -0.55200
O57         O  0.27330355  0.30162565  0.07598200    -0.55200
O58         O  0.22743807  0.27299512  0.09646741    -0.54400
O59         O  0.94917551  0.22174945  0.11649803    -0.55600
C60         C  0.02426714  0.25295719  0.12047586     0.77000
O61         O  0.96769937  0.28150699  0.08478523    -0.56700
C62         C  0.92642487  0.22296776  0.11808833     0.77000
C63         C  0.00635208  0.32083908  0.14429416     0.79400
Cd64       Cd  0.98601270  0.27477212  0.11548415     1.37500
O65         O  0.01402633  0.25353543  0.10447405    -0.55600
O66         O  0.98538060  0.29441676  0.14737157    -0.54400
C67         C  0.99249347  0.29518292  0.07635846     0.79400
O68         O  0.01580555  0.32659650  0.12734818    -0.56800
O69         O  0.01600235  0.26159237  0.13449583    -0.55200
O70         O  0.93103581  0.24873269  0.11945364    -0.55200
O71         O  0.01455653  0.30184709  0.08656954    -0.54400
O72         O  0.66232902  0.91929780  0.10931383    -0.55600
C73         C  0.72872718  0.02903726  0.10898221     0.77000
O74         O  0.67330817  0.95336785  0.06880957    -0.56700
C75         C  0.68734596  0.92286162  0.10669003     0.77000
C76         C  0.63237730  0.95610022  0.13092483     0.79400
Cd77       Cd  0.67702867  0.97014434  0.10198810     1.37500
O78         O  0.72641489  0.00572667  0.11511517    -0.55600
O79         O  0.65977537  0.97262255  0.13413596    -0.54400
C80         C  0.66432592  0.96874683  0.06178572     0.79400
O81         O  0.62537485  0.94773006  0.11384601    -0.56800
O82         O  0.70682948  0.02518909  0.09968042    -0.55200
O83         O  0.70807462  0.94873131  0.10197821    -0.55200
O84         O  0.65981067  0.98394761  0.07345422    -0.54400
O85         O  0.27220398  0.03135831  0.10300337    -0.55600
C86         C  0.22672441  0.94844160  0.11524112     0.77000
O87         O  0.32423897  0.01280688  0.08402104    -0.56700
C88         C  0.29360575  0.05403062  0.11084906     0.77000
C89         C  0.30899406  0.97636778  0.13991363     0.79400
Cd90       Cd  0.28699120  0.99671838  0.11016153     1.37500
O91         O  0.24501855  0.94698362  0.10470811    -0.55600
O92         O  0.31566166  0.97609803  0.12264810    -0.54400
C93         C  0.30536298  0.99663398  0.07149188     0.79400
O94         O  0.29567710  0.98940262  0.14338596    -0.56800
O95         O  0.23592911  0.97325265  0.12306966    -0.55200
O96         O  0.31229458  0.05032101  0.11909105    -0.55200
O97         O  0.27893515  0.98034549  0.07718783    -0.54400
O98         O  0.95575363  0.71336186  0.11530916    -0.55600
C99         C  0.03210391  0.75749628  0.12052162     0.77000
O100        O  0.98625893  0.66509845  0.14142943    -0.56700
C101        C  0.93250778  0.68872683  0.11920737     0.77000
C102        C  0.99052871  0.67883718  0.07403860     0.79400
Cd103      Cd  0.98969010  0.69564042  0.11344479     1.37500
O104        O  0.02140632  0.73890699  0.13398255    -0.55600
O105        O  0.01055276  0.70306907  0.08122039    -0.54400
C106        C  0.01225777  0.67067456  0.13976915     0.79400
O107        O  0.97049305  0.66097669  0.08544400    -0.56800
O108        O  0.02174581  0.74762656  0.10413536    -0.55200
O109        O  0.93574899  0.66716578  0.12095531    -0.55200
O110        O  0.02654944  0.68550858  0.12529618    -0.54400
O111        O  0.67722580  0.63243788  0.87949835    -0.55600
C112        C  0.67053224  0.65988148  0.93019443     0.77000
O113        O  0.74257477  0.70452986  0.90808651    -0.56700
C114        C  0.67458770  0.63744760  0.86232124     0.77000
C115        C  0.68533102  0.73126031  0.88563408     0.79400
Cd116      Cd  0.69381767  0.68272283  0.89221568     1.37500
O117        O  0.66211947  0.67403723  0.92073790    -0.55600
O118        O  0.66354503  0.70455660  0.88566318    -0.54400
C119        C  0.75716005  0.70927574  0.89288692     0.79400
O120        O  0.71038509  0.73499763  0.88836433    -0.56800
O121        O  0.68777172  0.65443522  0.92155427    -0.55200
O122        O  0.67774558  0.66221196  0.85924582    -0.55200
O123        O  0.74263595  0.70327168  0.87765540    -0.54400
O124        O  0.31211797  0.31420275  0.91527856    -0.55600
C125        C  0.33001729  0.30000821  0.85670775     0.77000
O126        O  0.29549687  0.24100716  0.89525101    -0.56700
C127        C  0.30073748  0.29353570  0.92753470     0.77000
C128        C  0.23691101  0.28578203  0.88310851     0.79400
Cd129      Cd  0.28675057  0.27933508  0.88756388     1.37500
O130        O  0.33772049  0.30404009  0.87398735    -0.55600
O131        O  0.26310799  0.30841811  0.88346997    -0.54400
C132        C  0.27246524  0.21962159  0.88774603     0.79400
O133        O  0.23436073  0.26097239  0.88403355    -0.56800
O134        O  0.30290889  0.28948339  0.85377534    -0.55200
O135        O  0.28335715  0.26779246  0.92108692    -0.55200
O136        O  0.25564926  0.22588483  0.87945858    -0.54400
O137        O  0.27314563  0.02335636  0.90523794    -0.55600
C138        C  0.24174092  0.93731125  0.89038357     0.77000
O139        O  0.34547030  0.01987153  0.87981971    -0.56700
C140        C  0.27461335  0.03604203  0.88979790     0.77000
C141        C  0.31896363  0.00064553  0.92993669     0.79400
Cd142      Cd  0.29442830  0.99579402  0.89267325     1.37500
O143        O  0.24207840  0.95914844  0.89746923    -0.55600
O144        O  0.32248125  0.02275932  0.92100649    -0.54400
C145        C  0.33798623  0.01473540  0.86249823     0.79400
O146        O  0.30645087  0.97642078  0.92082006    -0.56800
O147        O  0.26604963  0.94242326  0.88378595    -0.55200
O148        O  0.28491091  0.02975464  0.87570213    -0.55200
O149        O  0.31047923  0.99905137  0.85935582    -0.54400
O150        O  0.02143408  0.74453173  0.88452122    -0.55600
C151        C  0.94025022  0.70686286  0.88982441     0.77000
O152        O  0.98523045  0.67848308  0.85833048    -0.56700
C153        C  0.04426144  0.74399405  0.88766132     0.77000
C154        C  0.98151481  0.67641601  0.93173667     0.79400
Cd155      Cd  0.98488787  0.69278897  0.89195238     1.37500
O156        O  0.96739356  0.72722318  0.89049668    -0.55600
O157        O  0.96976129  0.68956859  0.92528532    -0.54400
C158        C  0.96844225  0.65078126  0.86057775     0.79400
O159        O  0.99474768  0.66999071  0.91962954    -0.56800
O160        O  0.93437965  0.68062726  0.88954764    -0.55200
O161        O  0.03977904  0.71904818  0.89219587    -0.55200
O162        O  0.96059512  0.64231701  0.87755388    -0.54400
C163        C  0.86345569  0.32642908  0.75554376    -0.00300
C164        C  0.85524448  0.51393320  0.74946000    -0.00300
C165        C  0.66234734  0.12544255  0.74748256    -0.00300
C166        C  0.66341477  0.51362467  0.74738264    -0.00300
C167        C  0.47066053  0.12623048  0.74933015    -0.00300
C168        C  0.46247848  0.31325746  0.74682700    -0.00300
O169        O  0.65232626  0.65679864  0.57840649    -0.55600
C170        C  0.67190003  0.63454395  0.63167052     0.77000
O171        O  0.73913300  0.70296282  0.61905972    -0.56700
C172        C  0.67119989  0.66612130  0.56502155     0.77000
C173        C  0.68669890  0.73378693  0.61438425     0.79400
Cd174      Cd  0.69078025  0.68300865  0.60429723     1.37500
O175        O  0.66099172  0.65036943  0.63219120    -0.55600
O176        O  0.66433347  0.70952381  0.60883243    -0.54400
C177        C  0.75264820  0.70475889  0.60379482     0.79400
O178        O  0.71031282  0.73414775  0.61560159    -0.56800
O179        O  0.68863832  0.63920097  0.61766290    -0.55200
O180        O  0.69787966  0.68225168  0.56998762    -0.55200
O181        O  0.73784503  0.69838723  0.58861882    -0.54400
O182        O  0.74975422  0.02779535  0.60234062    -0.55600
C183        C  0.69772847  0.92759011  0.62013355     0.77000
O184        O  0.67888038  0.01065863  0.62417746    -0.56700
C185        C  0.76537264  0.03351637  0.61702893     0.77000
C186        C  0.68418729  0.98031194  0.57637293     0.79400
Cd187      Cd  0.70427574  0.98481814  0.61513184     1.37500
O188        O  0.72122465  0.95037916  0.61419949    -0.55600
O189        O  0.71109315  0.99356780  0.58099192    -0.54400
C190        C  0.67903688  0.00732265  0.64196809     0.79400
O191        O  0.66565815  0.96858127  0.58989868    -0.56800
O192        O  0.67702788  0.93122186  0.62454364    -0.55200
O193        O  0.75283452  0.01627618  0.63101578    -0.55200
O194        O  0.68936774  0.99218927  0.64730682    -0.54400
O195        O  0.97498818  0.24223287  0.61022721    -0.55600
C196        C  0.05319526  0.30096449  0.62018607     0.77000
O197        O  0.01682322  0.32755721  0.58342627    -0.56700
C198        C  0.95022225  0.23509231  0.61722315     0.77000
C199        C  0.98237101  0.32115608  0.64416177     0.79400
Cd200      Cd  0.99762637  0.29607143  0.61299344     1.37500
O201        O  0.02842960  0.27666408  0.62070557    -0.55600
O202        O  0.99497421  0.30721158  0.64637280    -0.54400
C203        C  0.99524302  0.30973949  0.57297145     0.79400
O204        O  0.97984419  0.32700879  0.62710532    -0.56800
O205        O  0.05254007  0.32372337  0.61654602    -0.55200
O206        O  0.94753355  0.25628855  0.62196349    -0.55200
O207        O  0.97477432  0.28687928  0.58124725    -0.54400
O208        O  0.33027568  0.30740835  0.62611392    -0.55600
C209        C  0.29960072  0.29599987  0.57115429     0.77000
O210        O  0.28766533  0.23826057  0.60192966    -0.56700
C211        C  0.32170259  0.29493904  0.64220371     0.77000
C212        C  0.23266576  0.28681094  0.61558751     0.79400
Cd213      Cd  0.28099033  0.27788050  0.61057243     1.37500
O214        O  0.30424123  0.31515257  0.58368694    -0.55600
O215        O  0.25901712  0.30713759  0.61952744    -0.54400
C216        C  0.26501168  0.21751639  0.61026992     0.79400
O217        O  0.22907203  0.26284513  0.60953960    -0.56800
O218        O  0.28784810  0.26981321  0.57713005    -0.55200
O219        O  0.29419093  0.27693912  0.64407026    -0.55200
O220        O  0.24860303  0.22446747  0.61861919    -0.54400
O221        O  0.23989829  0.95491980  0.62387960    -0.55600
C222        C  0.26883884  0.03395103  0.61488085     0.77000
O223        O  0.33978625  0.02285751  0.62277147    -0.56700
C224        C  0.23941754  0.93316888  0.61642502     0.77000
C225        C  0.30735963  0.99945103  0.57138899     0.79400
Cd226      Cd  0.28836846  0.99342778  0.61086122     1.37500
O227        O  0.29001153  0.03663031  0.62444803    -0.55600
O228        O  0.29775324  0.01430358  0.57858091    -0.54400
C229        C  0.33419176  0.01138905  0.63917571     0.79400
O230        O  0.30952519  0.98246257  0.58274016    -0.56800
O231        O  0.25574174  0.01164788  0.60397823    -0.55200
O232        O  0.26194700  0.93919983  0.60680815    -0.55200
O233        O  0.30777432  0.99030219  0.64200285    -0.54400
O234        O  0.01996064  0.74312320  0.61482985    -0.55600
C235        C  0.93602954  0.70117632  0.60755239     0.77000
O236        O  0.97506930  0.69571806  0.57338394    -0.56700
C237        C  0.04261497  0.74193959  0.61238666     0.77000
C238        C  0.96690931  0.65082544  0.63818976     0.79400
Cd239      Cd  0.98358111  0.69177151  0.60683093     1.37500
O240        O  0.93207714  0.67612111  0.60409063    -0.55600
O241        O  0.98029414  0.67852319  0.64045141    -0.54400
C242        C  0.98244652  0.67862891  0.56690729     0.79400
O243        O  0.96266694  0.64188347  0.62111244    -0.56800
O244        O  0.96216213  0.72191551  0.61159291    -0.55200
O245        O  0.03799779  0.71702944  0.60749775    -0.55200
O246        O  0.99116014  0.66753061  0.57900940    -0.54400
O247        O  0.95364922  0.71473351  0.38486842    -0.55600
C248        C  0.03182051  0.75958248  0.38314377     0.77000
O249        O  0.96341395  0.66355235  0.41412989    -0.56700
C250        C  0.93047098  0.69063034  0.38008674     0.77000
C251        C  0.00989562  0.67233833  0.35960678     0.79400
Cd252      Cd  0.98715692  0.69711136  0.38623754     1.37500
O253        O  0.02173035  0.74309590  0.36861303    -0.55600
O254        O  0.99138416  0.67876433  0.35480675    -0.54400
C255        C  0.98546643  0.67806992  0.42502817     0.79400
O256        O  0.01590704  0.67477138  0.37713776    -0.56800
O257        O  0.02000584  0.74740934  0.39883994    -0.55200
O258        O  0.93330122  0.66887495  0.37755630    -0.55200
O259        O  0.00825014  0.69991053  0.41756188    -0.54400
O260        O  0.66579037  0.65380992  0.41276412    -0.55600
C261        C  0.64542292  0.66720383  0.35603874     0.77000
O262        O  0.68674232  0.73120479  0.37518676    -0.56700
C263        C  0.66574361  0.67194318  0.42434305     0.77000
C264        C  0.73932703  0.68420795  0.37912980     0.79400
Cd265      Cd  0.68928057  0.69020448  0.38613855     1.37500
O266        O  0.67224032  0.67632221  0.35290107    -0.55600
O267        O  0.71391837  0.66166610  0.38276767    -0.54400
C268        C  0.70885050  0.75168338  0.38399158     0.79400
O269        O  0.74101905  0.70861113  0.37861202    -0.56800
O270        O  0.63831842  0.66590565  0.37335475    -0.55200
O271        O  0.67614050  0.69776726  0.41806559    -0.55200
O272        O  0.72311751  0.74389497  0.39392383    -0.54400
O273        O  0.27357397  0.02397231  0.38268746    -0.55600
C274        C  0.23113061  0.94880708  0.38795073     0.77000
O275        O  0.30556297  0.95675666  0.37800803    -0.56700
C276        C  0.29732001  0.04920396  0.38364444     0.77000
C277        C  0.31263696  0.99569980  0.42911457     0.79400
Cd278      Cd  0.29376848  0.99320600  0.38979732     1.37500
O279        O  0.24468149  0.96543438  0.37386480    -0.55600
O280        O  0.32900015  0.01636245  0.41755840    -0.54400
C281        C  0.31631570  0.96853828  0.36210282     0.79400
O282        O  0.28890215  0.97439718  0.42227328    -0.56800
O283        O  0.24612139  0.95417578  0.40293698    -0.55200
O284        O  0.32031936  0.04903073  0.38722498    -0.55200
O285        O  0.31963575  0.99351432  0.35961528    -0.54400
O286        O  0.29487812  0.32352696  0.37525603    -0.55600
C287        C  0.28547922  0.29562540  0.42916088     0.77000
O288        O  0.21132373  0.24114270  0.38037303    -0.56700
C289        C  0.27876182  0.31670358  0.36061684     0.77000
C290        C  0.27543366  0.22531352  0.38589988     0.79400
Cd291      Cd  0.26393650  0.27286960  0.39078772     1.37500
O292        O  0.30278092  0.29610954  0.41659924    -0.55600
O293        O  0.29100127  0.24996032  0.37747407    -0.54400
C294        C  0.20181871  0.25161077  0.39253606     0.79400
O295        O  0.25449401  0.22258021  0.39591719    -0.56800
O296        O  0.25957665  0.28626550  0.42358678    -0.55200
O297        O  0.25783514  0.28988510  0.35954160    -0.55200
O298        O  0.22060961  0.26985764  0.40430571    -0.54400
O299        O  0.99764941  0.24517714  0.39844103    -0.55600
C300        C  0.91876915  0.22658836  0.38769086     0.77000
O301        O  0.96978533  0.30017386  0.41985429    -0.56700
C302        C  0.02092798  0.25971586  0.38851610     0.77000
C303        C  0.99499428  0.32229426  0.36277220     0.79400
Cd304      Cd  0.97913358  0.27754870  0.39188238     1.37500
O305        O  0.93991724  0.22997924  0.37758365    -0.55600
O306        O  0.97659542  0.29507127  0.35962853    -0.54400
C307        C  0.98857458  0.30010183  0.43062943     0.79400
O308        O  0.00417944  0.32887305  0.37969298    -0.56800
O309        O  0.92537133  0.24701441  0.39958669    -0.55200
O310        O  0.02415572  0.28173362  0.37964399    -0.55200
O311        O  0.00334271  0.29053575  0.42323544    -0.54400
O312        O  0.69479128  0.93612573  0.40855128    -0.55600
C313        C  0.72868193  0.02647437  0.39140220     0.77000
O314        O  0.63235238  0.92368719  0.38079072    -0.56700
C315        C  0.70409495  0.93255135  0.39286182     0.77000
C316        C  0.65786336  0.96478769  0.43528271     0.79400
Cd317      Cd  0.67739098  0.96632480  0.39618437     1.37500
O318        O  0.73094167  0.00474314  0.39514005    -0.55600
O319        O  0.65781982  0.94348954  0.42755289    -0.54400
C320        C  0.63099743  0.93780739  0.36694945     0.79400
O321        O  0.66423553  0.98616502  0.42436485    -0.56800
O322        O  0.70252296  0.02037003  0.38951435    -0.55200
O323        O  0.70240892  0.94608389  0.37870961    -0.55200
O324        O  0.64951610  0.96551690  0.36729024    -0.54400
C325        C  0.83975565  0.16528547  0.39995719     0.14900
C326        C  0.83244207  0.14587219  0.38452478     0.01900
C327        C  0.85246093  0.15432492  0.36931366     0.16800
C328        C  0.88008078  0.18109613  0.36998418     0.26300
C329        C  0.88827045  0.19987111  0.38598584    -0.40100
C330        C  0.86742976  0.19198127  0.40074981     0.33300
C331        C  0.80570383  0.11544234  0.38546271     0.01900
F332        F  0.84548092  0.13625238  0.35399187    -0.12400
F333        F  0.87431963  0.20927656  0.41646143    -0.12900
C334        C  0.77721715  0.11013580  0.38382261     0.16900
C335        C  0.75218272  0.08131221  0.38576848     0.26300
C336        C  0.75519747  0.05719975  0.38938127    -0.40000
C337        C  0.78396383  0.06286057  0.39120902     0.33200
C338        C  0.80884493  0.09161765  0.38916351     0.14900
F339        F  0.77365239  0.13288045  0.38032341    -0.12400
F340        F  0.78821248  0.04071443  0.39527627    -0.12900
F341        F  0.72501696  0.07715992  0.38438494    -0.15200
F342        F  0.83620125  0.09641894  0.39129827    -0.13700
F343        F  0.82064330  0.15759787  0.41476243    -0.13700
F344        F  0.89896892  0.18835860  0.35508997    -0.15200
C345        C  0.08888762  0.25943405  0.37408958     0.14900
C346        C  0.08973054  0.24158370  0.38828727     0.01900
C347        C  0.06687965  0.22820575  0.40183308     0.16800
C348        C  0.04405592  0.23342651  0.40162701     0.26300
C349        C  0.04359814  0.25205564  0.38775153    -0.40100
C350        C  0.06609550  0.26468962  0.37382642     0.33300
C351        C  0.11624539  0.24002700  0.39029853     0.01900
F352        F  0.06719904  0.21077171  0.41564077    -0.12400
F353        F  0.06656694  0.28281645  0.36021401    -0.12900
C354        C  0.13411668  0.25242582  0.40642841     0.16900
C355        C  0.16114319  0.25463347  0.40759758     0.26300
C356        C  0.17101886  0.24456492  0.39255802    -0.40000
C357        C  0.15230782  0.23073051  0.37678923     0.33200
C358        C  0.12517374  0.22857587  0.37566977     0.14900
F359        F  0.12614717  0.26399727  0.42064230    -0.12400
F360        F  0.16081030  0.22058859  0.36201492    -0.12900
F361        F  0.17810190  0.26771729  0.42322009    -0.15200
F362        F  0.10792407  0.21598288  0.36009464    -0.13700
F363        F  0.11104359  0.27310376  0.36106884    -0.13700
F364        F  0.02331797  0.22146596  0.41562524    -0.15200
C365        C  0.30576442  0.17847485  0.36928183     0.14900
C366        C  0.29105709  0.15401783  0.38160221     0.01900
C367        C  0.27181216  0.15344087  0.39542815     0.16800
C368        C  0.26710792  0.17664789  0.39691544     0.26300
C369        C  0.28127243  0.20103231  0.38438287    -0.40100
C370        C  0.30087820  0.20172089  0.37060365     0.33300
C371        C  0.29460707  0.12837640  0.37988620     0.01900
F372        F  0.25753623  0.13023606  0.40762786    -0.12400
F373        F  0.31491841  0.22456935  0.35813514    -0.12900
C374        C  0.32043896  0.13035517  0.38611118     0.16900
C375        C  0.32195408  0.10496303  0.38671833     0.26300
C376        C  0.29755063  0.07703568  0.38114001    -0.40000
C377        C  0.27231753  0.07561184  0.37401346     0.33200
C378        C  0.27088092  0.10091256  0.37347136     0.14900
F379        F  0.34370359  0.15663050  0.39241262    -0.12400
F380        F  0.24866575  0.04955784  0.36777086    -0.12900
F381        F  0.34685403  0.10758060  0.39349709    -0.15200
F382        F  0.24591842  0.09848073  0.36699225    -0.13700
F383        F  0.32426903  0.17947193  0.35565573    -0.13700
F384        F  0.24880186  0.17525659  0.41083435    -0.15200
C385        C  0.70333099  0.81721182  0.37253397     0.14900
C386        C  0.72548038  0.83951771  0.38402623     0.01900
C387        C  0.74409708  0.83372447  0.39437157     0.16800
C388        C  0.73962120  0.80545120  0.39393379     0.26300
C389        C  0.71649706  0.78264851  0.38301448    -0.40100
C390        C  0.69901663  0.78921769  0.37189220     0.33300
C391        C  0.72630387  0.86725072  0.38680996     0.01900
F392        F  0.76599657  0.85522371  0.40532296    -0.12400
F393        F  0.67668940  0.76819774  0.36095568    -0.12900
C394        C  0.72003615  0.87388826  0.40484041     0.16900
C395        C  0.71443897  0.89628216  0.40699628     0.26300
C396        C  0.71488088  0.91242957  0.39108660    -0.40000
C397        C  0.72296804  0.90690984  0.37320395     0.33200
C398        C  0.72865817  0.88452197  0.37112081     0.14900
F399        F  0.71698736  0.85710324  0.42015469    -0.12400
F400        F  0.72383737  0.92199936  0.35750023    -0.12900
F401        F  0.70683902  0.90081553  0.42452382    -0.15200
F402        F  0.73497373  0.87864120  0.35357533    -0.13700
F403        F  0.68446444  0.82191772  0.36282742    -0.13700
F404        F  0.75718928  0.80022597  0.40472715    -0.15200
C405        C  0.10172038  0.82916284  0.36572572     0.14900
C406        C  0.11140276  0.84636458  0.38240040     0.01900
C407        C  0.09288011  0.83651688  0.39848494     0.16800
C408        C  0.06608572  0.80904667  0.39837657     0.26300
C409        C  0.05719407  0.79081386  0.38210358    -0.40100
C410        C  0.07473792  0.80173029  0.36551573     0.33300
C411        C  0.14177274  0.87311293  0.38373588     0.01900
F412        F  0.10130238  0.85315015  0.41459136    -0.12400
F413        F  0.06672297  0.78517602  0.34938547    -0.12900
C414        C  0.15160276  0.89739343  0.37150200     0.16900
C415        C  0.18049231  0.92239331  0.37300307     0.26300
C416        C  0.19993402  0.92351907  0.38684951    -0.40000
C417        C  0.18982799  0.89919580  0.39914221     0.33200
C418        C  0.16123172  0.87421419  0.39745341     0.14900
F419        F  0.13312469  0.89699545  0.35825345    -0.12400
F420        F  0.20798165  0.89901602  0.41240988    -0.12900
F421        F  0.18927707  0.94558252  0.36108367    -0.15200
F422        F  0.15278127  0.85059099  0.40891635    -0.13700
F423        F  0.11924407  0.83798465  0.35001178    -0.13700
F424        F  0.04940089  0.79992967  0.41447335    -0.15200
C425        C  0.85158869  0.66403903  0.36542463     0.14900
C426        C  0.84744117  0.68489365  0.37463121     0.01900
C427        C  0.87071871  0.70747410  0.38544391     0.16800
C428        C  0.89754408  0.70928333  0.38703451     0.26300
C429        C  0.90178483  0.68835994  0.37798636    -0.40100
C430        C  0.87842953  0.66560356  0.36719847     0.33300
C431        C  0.81882157  0.68305041  0.37354568     0.01900
F432        F  0.86721584  0.72746266  0.39496594    -0.12400
F433        F  0.88167260  0.64514237  0.35811353    -0.12900
C434        C  0.79240347  0.65769622  0.37995514     0.16900
C435        C  0.76620016  0.65748075  0.38114921     0.26300
C436        C  0.76595608  0.68273155  0.37602139    -0.40000
C437        C  0.79215713  0.70750856  0.36869671     0.33200
C438        C  0.81819819  0.70762710  0.36746946     0.14900
F439        F  0.79229482  0.63363006  0.38597124    -0.12400
F440        F  0.79279451  0.73194443  0.36287395    -0.12900
F441        F  0.74145584  0.63298643  0.38807738    -0.15200
F442        F  0.84304937  0.73206236  0.36056216    -0.13700
F443        F  0.82981997  0.64245480  0.35445518    -0.13700
F444        F  0.91910030  0.73113161  0.39798590    -0.15200
C445        C  0.00893981  0.68328996  0.47646393     0.14900
C446        C  0.98189835  0.66355228  0.48549509     0.01900
C447        C  0.95646152  0.64640209  0.47435366     0.16800
C448        C  0.95770095  0.65021449  0.45459316     0.26300
C449        C  0.98457744  0.67100756  0.44555939    -0.40100
C450        C  0.01033392  0.68693404  0.45673732     0.33300
C451        C  0.97977294  0.66387625  0.50652249     0.01900
F452        F  0.93016310  0.62666814  0.48272561    -0.12400
F453        F  0.03680824  0.70710389  0.44875572    -0.12900
C454        C  0.96166202  0.67231329  0.51495646     0.16900
C455        C  0.96220643  0.67656089  0.53458279     0.26300
C456        C  0.98079867  0.67229138  0.54627259    -0.40000
C457        C  0.99827542  0.66294870  0.53790724     0.33200
C458        C  0.99779058  0.65881765  0.51818195     0.14900
F459        F  0.94440787  0.67785154  0.50405549    -0.12400
F460        F  0.01683128  0.65912405  0.54867866    -0.12900
F461        F  0.94471625  0.68524214  0.54208136    -0.15200
F462        F  0.01534294  0.65042986  0.51040930    -0.13700
F463        F  0.03376097  0.70053717  0.48688826    -0.13700
F464        F  0.93226105  0.63463024  0.44450622    -0.15200
C465        C  0.31337015  0.01817522  0.51878205     0.14900
C466        C  0.32311444  0.00076675  0.51090820     0.01900
C467        C  0.32932705  0.98416492  0.52315295     0.16800
C468        C  0.32531192  0.98454175  0.54287726     0.26300
C469        C  0.31457592  0.00122791  0.55074043    -0.40100
C470        C  0.30912331  0.01842458  0.53841161     0.33300
C471        C  0.32475005  0.99871943  0.48986268     0.01900
F472        F  0.33911365  0.96741082  0.51599489    -0.12400
F473        F  0.29874321  0.03487589  0.54519858    -0.12900
C474        C  0.34223439  0.02438517  0.47886380     0.16900
C475        C  0.33972183  0.02330957  0.45896817     0.26300
C476        C  0.31965234  0.99644617  0.44968258    -0.40000
C477        C  0.30394386  0.97037795  0.46068816     0.33200
C478        C  0.30636344  0.97154908  0.48054037     0.14900
F479        F  0.36099733  0.05073877  0.48750367    -0.12400
F480        F  0.28537817  0.94374206  0.45229955    -0.12900
F481        F  0.35568690  0.04888067  0.44896806    -0.15200
F482        F  0.28926248  0.94633282  0.49071947    -0.13700
F483        F  0.30662160  0.03399362  0.50731767    -0.13700
F484        F  0.33152751  0.96818304  0.55420466    -0.15200
C485        C  0.16750280  0.86689707  0.63437824     0.14900
C486        C  0.15993324  0.84676126  0.61934102     0.01900
C487        C  0.17988955  0.85402804  0.60423657     0.16800
C488        C  0.20654004  0.88166348  0.60374351     0.26300
C489        C  0.21342886  0.90257072  0.61827462    -0.40100
C490        C  0.19402088  0.89460834  0.63385601     0.33300
C491        C  0.13002799  0.81963016  0.61843405     0.01900
F492        F  0.17272207  0.83507385  0.58938837    -0.12400
F493        F  0.20052265  0.91378434  0.64847608    -0.12900
C494        C  0.10549704  0.82212867  0.61663307     0.16900
C495        C  0.07713457  0.79686673  0.61492491     0.26300
C496        C  0.07273115  0.76848964  0.61486347    -0.40000
C497        C  0.09737578  0.76599925  0.61687924     0.33200
C498        C  0.12583208  0.79143642  0.61863651     0.14900
F499        F  0.10914907  0.84921023  0.61592612    -0.12400
F500        F  0.09395595  0.73901711  0.61736275    -0.12900
F501        F  0.05410323  0.80035124  0.61277040    -0.15200
F502        F  0.14927966  0.78859355  0.62067049    -0.13700
F503        F  0.14876057  0.85994718  0.64932446    -0.13700
F504        F  0.22465860  0.88861197  0.58844810    -0.15200
C505        C  0.32457193  0.30975200  0.47685575     0.14900
C506        C  0.30495166  0.31153066  0.48928388     0.01900
C507        C  0.28085735  0.31139346  0.48148926     0.16800
C508        C  0.27555240  0.30787725  0.46185339     0.26300
C509        C  0.29406711  0.30410963  0.44947807    -0.40100
C510        C  0.31913735  0.30590679  0.45719550     0.33300
C511        C  0.30759999  0.31006189  0.51034078     0.01900
F512        F  0.26137037  0.31293288  0.49300697    -0.12400
F513        F  0.33759864  0.30237955  0.44592041    -0.12900
C514        C  0.30933226  0.33177244  0.52262357     0.16900
C515        C  0.30883519  0.32837346  0.54248836     0.26300
C516        C  0.30586954  0.30283015  0.55046040    -0.40000
C517        C  0.30570530  0.28195301  0.53809246     0.33200
C518        C  0.30643543  0.28548787  0.51834235     0.14900
F519        F  0.31087941  0.35598544  0.51538722    -0.12400
F520        F  0.30404791  0.25753030  0.54506465    -0.12900
F521        F  0.30991426  0.34944749  0.55385820    -0.15200
F522        F  0.30429435  0.26388543  0.50697293    -0.13700
F523        F  0.34862478  0.31087663  0.48388265    -0.13700
F524        F  0.25160935  0.30721471  0.45506275    -0.15200
C525        C  0.24045984  0.08232934  0.60061372     0.14900
C526        C  0.25268379  0.10414881  0.61484670     0.01900
C527        C  0.26779051  0.10130802  0.63002048     0.16800
C528        C  0.27193804  0.07774025  0.63049609     0.26300
C529        C  0.26088194  0.05645738  0.61579462    -0.40100
C530        C  0.24430928  0.05854339  0.60112787     0.33300
C531        C  0.25289395  0.13164096  0.61274899     0.01900
F532        F  0.28003741  0.12236308  0.64381744    -0.12400
F533        F  0.23318338  0.03853375  0.58669505    -0.12900
C534        C  0.23824634  0.13920378  0.62589483     0.16900
C535        C  0.24100284  0.16666606  0.62468034     0.26300
C536        C  0.25891257  0.18711823  0.61046928    -0.40000
C537        C  0.27294267  0.17903246  0.59708099     0.33200
C538        C  0.26986504  0.15155801  0.59820238     0.14900
F539        F  0.22179165  0.12021884  0.64010207    -0.12400
F540        F  0.29018764  0.19794596  0.58304819    -0.12900
F541        F  0.22726177  0.17370216  0.63790650    -0.15200
F542        F  0.28465076  0.14492336  0.58555657    -0.13700
F543        F  0.22569176  0.08469214  0.58584786    -0.13700
F544        F  0.28755598  0.07631298  0.64508134    -0.15200
C545        C  0.97302789  0.31879256  0.47977589     0.14900
C546        C  0.99503502  0.31925237  0.49078459     0.01900
C547        C  0.01665635  0.31642540  0.48156629     0.16800
C548        C  0.01537971  0.31157452  0.46190599     0.26300
C549        C  0.99235700  0.30941665  0.45096429    -0.40100
C550        C  0.97175837  0.31406116  0.46007352     0.33300
C551        C  0.99383458  0.31947502  0.51195265     0.01900
F552        F  0.03809702  0.31659272  0.49178967    -0.12400
F553        F  0.94954319  0.31275206  0.45009498    -0.12900
C554        C  0.96909729  0.29642842  0.52155619     0.16900
C555        C  0.96917923  0.29395766  0.54136343     0.26300
C556        C  0.99413034  0.31450077  0.55214413    -0.40000
C557        C  0.01844130  0.33836532  0.54253429     0.33200
C558        C  0.01821613  0.34083928  0.52266153     0.14900
F559        F  0.94531144  0.27527038  0.51163427    -0.12400
F560        F  0.04289763  0.35882794  0.55223088    -0.12900
F561        F  0.94504043  0.27072747  0.54985213    -0.15200
F562        F  0.04206709  0.36386361  0.51380285    -0.13700
F563        F  0.95222257  0.32213276  0.48820299    -0.13700
F564        F  0.03624116  0.30804541  0.45374862    -0.15200
C565        C  0.13380651  0.32509723  0.61652852     0.14900
C566        C  0.13269397  0.30004609  0.62366701     0.01900
C567        C  0.10605224  0.27689901  0.63157302     0.16800
C568        C  0.08057836  0.27785510  0.63122860     0.26300
C569        C  0.08116257  0.30208964  0.62302486    -0.40100
C570        C  0.10833904  0.32621053  0.61632449     0.33300
C571        C  0.15854062  0.29702106  0.62179775     0.01900
F572        F  0.10456940  0.25301571  0.63937236    -0.12400
F573        F  0.11001843  0.35025477  0.60866347    -0.12900
C574        C  0.18641595  0.31871334  0.62904951     0.16900
C575        C  0.21062758  0.31566986  0.62695727     0.26300
C576        C  0.20732296  0.29059372  0.61779772    -0.40000
C577        C  0.17927577  0.26887151  0.61065465     0.33200
C578        C  0.15533628  0.27221047  0.61247746     0.14900
F579        F  0.19007650  0.34259462  0.63849745    -0.12400
F580        F  0.17492292  0.24441353  0.60160947    -0.12900
F581        F  0.23716406  0.33714808  0.63412112    -0.15200
F582        F  0.12900928  0.25133522  0.60472571    -0.13700
F583        F  0.15916278  0.34784310  0.60878842    -0.13700
F584        F  0.05521090  0.25476363  0.63873395    -0.15200
C585        C  0.64844789  0.94375174  0.48753338     0.14900
C586        C  0.65459751  0.96999595  0.49637955     0.01900
C587        C  0.65787139  0.99312514  0.48504130     0.16800
C588        C  0.65692519  0.99078651  0.46512588     0.26300
C589        C  0.65288382  0.96526387  0.45615596    -0.40100
C590        C  0.64755882  0.94135712  0.46768747     0.33300
C591        C  0.66076420  0.97421191  0.51713210     0.01900
F592        F  0.66293499  0.01839730  0.49328239    -0.12400
F593        F  0.64296778  0.91604694  0.45982728    -0.12900
C594        C  0.68905972  0.99631974  0.52348877     0.16900
C595        C  0.69634619  0.99857529  0.54274126     0.26300
C596        C  0.67545031  0.97877569  0.55617007    -0.40000
C597        C  0.64682300  0.95710206  0.54987275     0.33200
C598        C  0.63959835  0.95482713  0.53051772     0.14900
F599        F  0.71015695  0.01503133  0.51089347    -0.12400
F600        F  0.62615680  0.93737759  0.56228784    -0.12900
F601        F  0.72410615  0.02007673  0.54816311    -0.15200
F602        F  0.61201540  0.93341680  0.52478344    -0.13700
F603        F  0.64524508  0.92105850  0.49809807    -0.13700
F604        F  0.66131510  0.01407120  0.45468938    -0.15200
C605        C  0.83838626  0.10168485  0.60204716     0.14900
C606        C  0.85112410  0.11395006  0.61974219     0.01900
C607        C  0.83726530  0.09817412  0.63642397     0.16800
C608        C  0.81013009  0.07103977  0.63551906     0.26300
C609        C  0.79613967  0.05962450  0.61787421    -0.40100
C610        C  0.81104582  0.07480599  0.60108354     0.33300
C611        C  0.87725067  0.14444673  0.62079116     0.01900
F612        F  0.84964682  0.10957431  0.65362663    -0.12400
F613        F  0.79888920  0.06408817  0.58372383    -0.12900
C614        C  0.87393207  0.16735514  0.62702073     0.16900
C615        C  0.89783474  0.19675282  0.62641799     0.26300
C616        C  0.92555053  0.20376151  0.61942533    -0.40000
C617        C  0.92904527  0.18047584  0.61399979     0.33200
C618        C  0.90499861  0.15107553  0.61458275     0.14900
F619        F  0.84714470  0.16128726  0.63301111    -0.12400
F620        F  0.95557757  0.18607741  0.60785353    -0.12900
F621        F  0.89351656  0.21829400  0.63228063    -0.15200
F622        F  0.90866992  0.12905080  0.60889178    -0.13700
F623        F  0.85175420  0.11652830  0.58574113    -0.13700
F624        F  0.79694669  0.05676675  0.65199060    -0.15200
C625        C  0.65089339  0.68062978  0.47588579     0.14900
C626        C  0.64880918  0.65580947  0.48416733     0.01900
C627        C  0.64744995  0.63394177  0.47234415     0.16800
C628        C  0.65070212  0.63801146  0.45261053     0.26300
C629        C  0.65571779  0.66427372  0.44441695    -0.40100
C630        C  0.65405669  0.68472802  0.45617357     0.33300
C631        C  0.65246799  0.65496206  0.50497685     0.01900
F632        F  0.64445710  0.60930623  0.48005036    -0.12400
F633        F  0.65684136  0.70944533  0.44873925    -0.12900
C634        C  0.63098944  0.65199494  0.51788939     0.16900
C635        C  0.63623183  0.65401492  0.53756869     0.26300
C636        C  0.66330474  0.65957943  0.54456661    -0.40000
C637        C  0.68423681  0.66139278  0.53150848     0.33200
C638        C  0.67885432  0.65912964  0.51196368     0.14900
F639        F  0.60520610  0.64766395  0.51139523    -0.12400
F640        F  0.71021550  0.66573980  0.53762759    -0.12900
F641        F  0.61543465  0.65191700  0.54967152    -0.15200
F642        F  0.70004087  0.66228983  0.49974117    -0.13700
F643        F  0.65206378  0.70200734  0.48699383    -0.13700
F644        F  0.65062212  0.61701437  0.44172207    -0.15200
C645        C  0.82407776  0.71479335  0.62091448     0.14900
C646        C  0.83851681  0.71730181  0.60369586     0.01900
C647        C  0.82605443  0.71862788  0.58653706     0.16800
C648        C  0.79875542  0.71608569  0.58654907     0.26300
C649        C  0.78348404  0.71215132  0.60378913    -0.40100
C650        C  0.79686128  0.71228521  0.62100186     0.33300
C651        C  0.86450035  0.71476140  0.60363986     0.01900
F652        F  0.83986701  0.72131653  0.56972509    -0.12400
F653        F  0.78282679  0.70807493  0.63791407    -0.12900
C654        C  0.86233503  0.68998378  0.59511685     0.16900
C655        C  0.88554904  0.68558979  0.59645936     0.26300
C656        C  0.91147206  0.70595524  0.60641437    -0.40000
C657        C  0.91374403  0.73099954  0.61480767     0.33200
C658        C  0.89038855  0.73533940  0.61342575     0.14900
F659        F  0.83720951  0.66941403  0.58601308    -0.12400
F660        F  0.93820172  0.75089858  0.62475112    -0.12900
F661        F  0.88258438  0.66138197  0.58791399    -0.15200
F662        F  0.89289274  0.75946973  0.62176212    -0.13700
F663        F  0.83536530  0.71265466  0.63760698    -0.13700
F664        F  0.78686844  0.71637594  0.56962563    -0.15200
C665        C  0.66056737  0.78721781  0.61737054     0.14900
C666        C  0.68656943  0.81363097  0.62300903     0.01900
C667        C  0.71152377  0.81281510  0.62761145     0.16800
C668        C  0.71125646  0.78674906  0.62537426     0.26300
C669        C  0.68578804  0.76056883  0.61868683    -0.40100
C670        C  0.66012727  0.76092495  0.61529268     0.33300
C671        C  0.68883982  0.84256897  0.62251808     0.01900
F672        F  0.73655095  0.83762519  0.63392542    -0.12400
F673        F  0.63484062  0.73612905  0.60929462    -0.12900
C674        C  0.66937029  0.84739276  0.63294021     0.16900
C675        C  0.67227492  0.87503699  0.63235746     0.26300
C676        C  0.69469247  0.89836751  0.62132287    -0.40000
C677        C  0.71404178  0.89334215  0.61088645     0.33200
C678        C  0.71101158  0.86579572  0.61140240     0.14900
F679        F  0.64788441  0.82553916  0.64395302    -0.12400
F680        F  0.73557650  0.91486996  0.59971397    -0.12900
F681        F  0.65346806  0.87908796  0.64286404    -0.15200
F682        F  0.72947989  0.86158494  0.60061277    -0.13700
F683        F  0.63599188  0.78715978  0.61294403    -0.13700
F684        F  0.73633197  0.78750598  0.62936035    -0.15200
C685        C  0.39146289  0.31165567  0.66727153     0.14900
C686        C  0.38181067  0.30393640  0.68620585     0.01900
C687        C  0.35236492  0.29413088  0.69075340     0.16800
C688        C  0.33286569  0.29162403  0.67659339     0.26300
C689        C  0.34265595  0.29969722  0.65763643    -0.40100
C690        C  0.37223144  0.30984625  0.65320634     0.33300
C691        C  0.40253765  0.30635626  0.70116205     0.01900
F692        F  0.34252912  0.28723909  0.70898571    -0.12400
F693        F  0.38226148  0.31667958  0.63502304    -0.12900
C694        C  0.42952662  0.33319364  0.70408931     0.16900
C695        C  0.44913871  0.33593060  0.71819584     0.26300
C696        C  0.44254782  0.31141212  0.72991149    -0.40000
C697        C  0.41425048  0.28497542  0.72739337     0.33200
C698        C  0.39516002  0.28225136  0.71292035     0.14900
F699        F  0.43641511  0.35749725  0.69379038    -0.12400
F700        F  0.40524701  0.26111928  0.73872317    -0.12900
F701        F  0.47312149  0.36356797  0.72107422    -0.15200
F702        F  0.36946261  0.25572828  0.71026453    -0.13700
F703        F  0.41935290  0.32003706  0.66222819    -0.13700
F704        F  0.30440134  0.28121747  0.68148817    -0.15200
C705        C  0.41661651  0.09807267  0.70575218     0.14900
C706        C  0.41315430  0.07069768  0.70201631     0.01900
C707        C  0.42547291  0.06016587  0.71459922     0.16800
C708        C  0.44256275  0.07755620  0.72998814     0.26300
C709        C  0.44912914  0.10684056  0.73283187    -0.40100
C710        C  0.43359504  0.11558451  0.72113147     0.33300
C711        C  0.39525368  0.05271783  0.68550483     0.01900
F712        F  0.42155447  0.03322209  0.71173643    -0.12400
F713        F  0.43255452  0.13976118  0.72502583    -0.12900
C714        C  0.40383048  0.06376905  0.66693336     0.16900
C715        C  0.38489570  0.04907731  0.65157905     0.26300
C716        C  0.35669428  0.02328446  0.65457097    -0.40000
C717        C  0.34921543  0.01101248  0.67301915     0.33200
C718        C  0.36839199  0.02557609  0.68830299     0.14900
F719        F  0.43029498  0.08931033  0.66374868    -0.12400
F720        F  0.32280366  0.98557977  0.67651261    -0.12900
F721        F  0.39376174  0.06087957  0.63392184    -0.15200
F722        F  0.35994138  0.01401187  0.70604341    -0.13700
F723        F  0.40245566  0.10742532  0.69482359    -0.13700
F724        F  0.45407458  0.06619215  0.74160550    -0.15200
C725        C  0.47473160  0.19832875  0.76547077     0.14900
C726        C  0.48266235  0.21471930  0.74850551     0.01900
C727        C  0.49155969  0.20459466  0.73296205     0.16800
C728        C  0.48929009  0.17723134  0.73370987     0.26300
C729        C  0.47743558  0.15867039  0.74993176    -0.40100
C730        C  0.47352123  0.17165080  0.76645935     0.33300
C731        C  0.48040765  0.24139520  0.74695478     0.01900
F732        F  0.50212278  0.22099203  0.71684118    -0.12400
F733        F  0.46920718  0.15935483  0.78394992    -0.12900
C734        C  0.49124379  0.26311397  0.76132582     0.16900
C735        C  0.48546753  0.28569656  0.76104956     0.26300
C736        C  0.46925350  0.28811888  0.74606850    -0.40000
C737        C  0.46215364  0.26843333  0.73041062     0.33200
C738        C  0.46614551  0.24470569  0.73138565     0.14900
F739        F  0.50757683  0.26261206  0.77579478    -0.12400
F740        F  0.45241732  0.27221971  0.71360306    -0.12900
F741        F  0.49509830  0.30478927  0.77595346    -0.15200
F742        F  0.45534467  0.22453324  0.71704035    -0.13700
F743        F  0.46704524  0.20747494  0.78119219    -0.13700
F744        F  0.49666539  0.16789484  0.71794055    -0.15200
C745        C  0.64182839  0.58559741  0.67596160     0.14900
C746        C  0.66256385  0.57746707  0.67850456     0.01900
C747        C  0.68483949  0.58642749  0.66463535     0.16800
C748        C  0.68680891  0.60360714  0.64901659     0.26300
C749        C  0.66704554  0.61308104  0.64701303    -0.40100
C750        C  0.64434437  0.60358902  0.66063142     0.33300
C751        C  0.66175548  0.56085148  0.69591065     0.01900
F752        F  0.70570033  0.57973728  0.66658634    -0.12400
F753        F  0.62456264  0.61179113  0.65921331    -0.12900
C754        C  0.66347431  0.53566999  0.69454136     0.16900
C755        C  0.66404134  0.52108998  0.71092089     0.26300
C756        C  0.66274156  0.53092545  0.72951403    -0.40000
C757        C  0.65834628  0.55483083  0.73050096     0.33200
C758        C  0.65929088  0.57018030  0.71413724     0.14900
F759        F  0.66423222  0.52474633  0.67724329    -0.12400
F760        F  0.65133723  0.56288766  0.74696351    -0.12900
F761        F  0.66642195  0.49738358  0.70846303    -0.15200
F762        F  0.65794785  0.59459018  0.71627257    -0.13700
F763        F  0.61894769  0.57604176  0.68833399    -0.13700
F764        F  0.70912425  0.61214023  0.63631890    -0.15200
C765        C  0.57947806  0.45261192  0.74677114     0.14900
C766        C  0.57873306  0.42648764  0.74314195     0.01900
C767        C  0.60535204  0.42860781  0.73905387     0.16800
C768        C  0.63240463  0.45602647  0.73971338     0.26300
C769        C  0.63385542  0.48240075  0.74531231    -0.40100
C770        C  0.60637012  0.48008887  0.74734751     0.33300
C771        C  0.55026625  0.39712537  0.74434271     0.01900
F772        F  0.60531832  0.40390222  0.73470863    -0.12400
F773        F  0.60546631  0.50446107  0.75088932    -0.12900
C774        C  0.53975821  0.37698801  0.72909849     0.16900
C775        C  0.51244225  0.34987039  0.73039966     0.26300
C776        C  0.49395956  0.34260161  0.74667536    -0.40000
C777        C  0.50642299  0.36200445  0.76259443     0.33200
C778        C  0.53368877  0.38892206  0.76120592     0.14900
F779        F  0.55546335  0.38394686  0.71264198    -0.12400
F780        F  0.49353007  0.35478609  0.78003298    -0.12900
F781        F  0.50322208  0.33138012  0.71516581    -0.15200
F782        F  0.54439391  0.40682389  0.77672509    -0.13700
F783        F  0.55396238  0.45152166  0.74991666    -0.13700
F784        F  0.65662444  0.45625930  0.73392828    -0.15200
C785        C  0.63395939  0.06086004  0.71152782     0.14900
C786        C  0.65507904  0.07318141  0.69686955     0.01900
C787        C  0.67535968  0.10403061  0.69674358     0.16800
C788        C  0.67691100  0.12161924  0.71208666     0.26300
C789        C  0.65851745  0.10861281  0.72834889    -0.40100
C790        C  0.63493256  0.07847169  0.72664267     0.33300
C791        C  0.65738930  0.05383737  0.68255370     0.01900
F792        F  0.69474307  0.11717868  0.68210181    -0.12400
F793        F  0.61456808  0.06511475  0.74075334    -0.12900
C794        C  0.65773147  0.05900312  0.66293083     0.16900
C795        C  0.66349546  0.04305254  0.64969779     0.26300
C796        C  0.66902425  0.02144718  0.65576895    -0.40000
C797        C  0.66697982  0.01514745  0.67537502     0.33200
C798        C  0.66133433  0.03119580  0.68857730     0.14900
F799        F  0.65280829  0.07980563  0.65654339    -0.12400
F800        F  0.67116030  0.99391053  0.68191855    -0.12900
F801        F  0.66466017  0.04959315  0.63096013    -0.15200
F802        F  0.66115546  0.02550799  0.70739576    -0.13700
F803        F  0.61293390  0.03141180  0.71161586    -0.13700
F804        F  0.69621613  0.15131511  0.71057304    -0.15200
C805        C  0.55028237  0.14682785  0.76109701     0.14900
C806        C  0.55714527  0.13445847  0.74594324     0.01900
C807        C  0.53771006  0.12269277  0.73051219     0.16800
C808        C  0.51113456  0.12175038  0.73065236     0.26300
C809        C  0.50187692  0.13047735  0.74707698    -0.40100
C810        C  0.52333641  0.14518474  0.76160298     0.33300
C811        C  0.58389844  0.13272880  0.74660347     0.01900
F812        F  0.54416415  0.11145174  0.71529574    -0.12400
F813        F  0.51760416  0.15663590  0.77698775    -0.12900
C814        C  0.58652957  0.11610859  0.76083239     0.16900
C815        C  0.61062118  0.11271349  0.76118257     0.26300
C816        C  0.63436210  0.12773483  0.74791199    -0.40000
C817        C  0.63074207  0.14380650  0.73326445     0.33200
C818        C  0.60600404  0.14615492  0.73264436     0.14900
F819        F  0.56476335  0.10176897  0.77403657    -0.12400
F820        F  0.65169697  0.15807536  0.71960909    -0.12900
F821        F  0.60888443  0.09288145  0.77382388    -0.15200
F822        F  0.60388466  0.16199755  0.71845597    -0.13700
F823        F  0.56962475  0.16021309  0.77564926    -0.13700
F824        F  0.49557498  0.11328611  0.71421762    -0.15200
C825        C  0.91700883  0.55537389  0.71126720     0.14900
C826        C  0.90758245  0.57089305  0.70090482     0.01900
C827        C  0.88125276  0.56853836  0.70608011     0.16800
C828        C  0.86395641  0.55029087  0.72114204     0.26300
C829        C  0.87251360  0.53336777  0.73161866    -0.40100
C830        C  0.90042560  0.53781747  0.72676680     0.33300
C831        C  0.92594517  0.59104394  0.68533627     0.01900
F832        F  0.87257182  0.58469557  0.69675093    -0.12400
F833        F  0.91164753  0.52464235  0.73687049    -0.12900
C834        C  0.92551637  0.57988541  0.66717605     0.16900
C835        C  0.94009597  0.59926431  0.65192276     0.26300
C836        C  0.95545252  0.63019724  0.65465569    -0.40000
C837        C  0.95734756  0.64117418  0.67323621     0.33200
C838        C  0.94256289  0.62174400  0.68836273     0.14900
F839        F  0.90992904  0.55020137  0.66407173    -0.12400
F840        F  0.97248437  0.67075251  0.67673844    -0.12900
F841        F  0.93828297  0.58767441  0.63440151    -0.15200
F842        F  0.94377686  0.63292590  0.70594166    -0.13700
F843        F  0.94276015  0.55776999  0.70661506    -0.13700
F844        F  0.84030739  0.55164781  0.72604116    -0.15200
C845        C  0.78488403  0.51149048  0.76777670     0.14900
C846        C  0.76814660  0.50400109  0.75108601     0.01900
C847        C  0.77702588  0.49463472  0.73524418     0.16800
C848        C  0.80342322  0.49513654  0.73557968     0.26300
C849        C  0.82311439  0.50753194  0.75121702    -0.40100
C850        C  0.81169223  0.51285116  0.76801786     0.33300
C851        C  0.74186825  0.50655602  0.75008637     0.01900
F852        F  0.76035466  0.48551119  0.71923325    -0.12400
F853        F  0.82573862  0.51878871  0.78496935    -0.12900
C854        C  0.74196014  0.52716960  0.73783582     0.16900
C855        C  0.71742106  0.52982999  0.73667577     0.26300
C856        C  0.69154317  0.51164638  0.74785463    -0.40000
C857        C  0.69305275  0.49278579  0.76132711     0.33200
C858        C  0.71727271  0.48958084  0.76191822     0.14900
F859        F  0.76651477  0.54575349  0.72742953    -0.12400
F860        F  0.67025755  0.47615211  0.77347362    -0.12900
F861        F  0.72038634  0.55174617  0.72542423    -0.15200
F862        F  0.71647231  0.46942078  0.77393208    -0.13700
F863        F  0.77566497  0.51833404  0.78384591    -0.13700
F864        F  0.81097656  0.48598770  0.71981976    -0.15200
C865        C  0.89374611  0.33320764  0.70410616     0.14900
C866        C  0.92148032  0.33709168  0.70712227     0.01900
C867        C  0.93245060  0.34232704  0.72572711     0.16800
C868        C  0.91525966  0.34114054  0.74111080     0.26300
C869        C  0.88540131  0.33288156  0.73857267    -0.40100
C870        C  0.87648198  0.33225130  0.71952293     0.33300
C871        C  0.93865898  0.33475812  0.69117243     0.01900
F872        F  0.96019884  0.34880487  0.72910790    -0.12400
F873        F  0.84960207  0.32773526  0.71579654    -0.12900
C874        C  0.94443452  0.35084598  0.67416996     0.16900
C875        C  0.95920266  0.34710560  0.65894775     0.26300
C876        C  0.96948269  0.32799202  0.66065525    -0.40000
C877        C  0.96469315  0.31285452  0.67798331     0.33200
C878        C  0.94909523  0.31580033  0.69285731     0.14900
F879        F  0.93593156  0.37035920  0.67231003    -0.12400
F880        F  0.97378897  0.29386786  0.68032128    -0.12900
F881        F  0.96315308  0.36199404  0.64250420    -0.15200
F882        F  0.94316911  0.29904589  0.70869422    -0.13700
F883        F  0.88242069  0.32848338  0.68630049    -0.13700
F884        F  0.92892521  0.34941541  0.75824187    -0.15200
C885        C  0.79886471  0.24740383  0.73922803     0.14900
C886        C  0.77753825  0.24010202  0.75343341     0.01900
C887        C  0.78481770  0.25998042  0.76860487     0.16800
C888        C  0.81196313  0.28727345  0.76887843     0.26300
C889        C  0.83341903  0.29552459  0.75420948    -0.40100
C890        C  0.82676037  0.27366346  0.74011399     0.33300
C891        C  0.74821770  0.21140376  0.75252364     0.01900
F892        F  0.76587791  0.25282097  0.78346091    -0.12400
F893        F  0.84732489  0.27581926  0.72784355    -0.12900
C894        C  0.74659180  0.18480207  0.74903942     0.16900
C895        C  0.71933742  0.15817886  0.74671514     0.26300
C896        C  0.69216102  0.15655948  0.74859918    -0.40000
C897        C  0.69421719  0.18344210  0.75352922     0.33200
C898        C  0.72170588  0.21037176  0.75475955     0.14900
F899        F  0.77158959  0.18435888  0.74815154    -0.12400
F900        F  0.67017626  0.18423931  0.75821159    -0.12900
F901        F  0.71979223  0.13380756  0.74236166    -0.15200
F902        F  0.72227320  0.23561144  0.75816310    -0.13700
F903        F  0.79287358  0.22881686  0.72432406    -0.13700
F904        F  0.81716256  0.30598177  0.78356465    -0.15200
C905        C  0.87988781  0.40672219  0.75601767     0.14900
C906        C  0.85241545  0.40262426  0.75202731     0.01900
C907        C  0.82820927  0.37390144  0.74881252     0.16800
C908        C  0.83108942  0.34944680  0.74981772     0.26300
C909        C  0.85849641  0.35281819  0.75489652    -0.40100
C910        C  0.88301125  0.38242026  0.75723989     0.33300
C911        C  0.84938577  0.42853204  0.75043969     0.01900
F912        F  0.80172833  0.36956047  0.74396061    -0.12400
F913        F  0.91030495  0.38800116  0.76092985    -0.12900
C914        C  0.85629674  0.44435187  0.73338500     0.16900
C915        C  0.85576137  0.47017223  0.73223768     0.26300
C916        C  0.85049927  0.48231183  0.74870869    -0.40000
C917        C  0.83945423  0.46365045  0.76496327     0.33200
C918        C  0.83942131  0.43747569  0.76588307     0.14900
F919        F  0.86347470  0.43464409  0.71769881    -0.12400
F920        F  0.83062104  0.47176863  0.78059871    -0.12900
F921        F  0.85955929  0.48235095  0.71475848    -0.15200
F922        F  0.83046273  0.42128007  0.78213052    -0.13700
F923        F  0.90393119  0.43449936  0.75862398    -0.13700
F924        F  0.80712593  0.32308727  0.74441019    -0.15200
C925        C  0.95244627  0.62117660  0.80982412     0.14900
C926        C  0.93007486  0.59124258  0.81261560     0.01900
C927        C  0.92269618  0.58029791  0.83128880     0.16800
C928        C  0.93626163  0.59925123  0.84690046     0.26300
C929        C  0.95741803  0.62971912  0.84417143    -0.40100
C930        C  0.96598593  0.64020861  0.82538791     0.33300
C931        C  0.91274030  0.57210727  0.79621235     0.01900
F932        F  0.90109793  0.55152123  0.83444501    -0.12400
F933        F  0.98684383  0.66913973  0.82196819    -0.12900
C934        C  0.91133329  0.54576443  0.79218022     0.16900
C935        C  0.89375017  0.52713466  0.77725431     0.26300
C936        C  0.87573436  0.53369056  0.76628726    -0.40000
C937        C  0.87920420  0.56154649  0.76991114     0.33200
C938        C  0.89697388  0.58004319  0.78468258     0.14900
F939        F  0.92786275  0.53846722  0.80237894    -0.12400
F940        F  0.86437124  0.57067966  0.75957883    -0.12900
F941        F  0.89630511  0.50392093  0.77313593    -0.15200
F942        F  0.89808161  0.60556978  0.78806249    -0.13700
F943        F  0.96073277  0.63216884  0.79193917    -0.13700
F944        F  0.92770329  0.58787857  0.86467454    -0.15200
C945        C  0.18232707  0.85950928  0.87500015     0.14900
C946        C  0.16031237  0.85209945  0.88874502     0.01900
C947        C  0.16575846  0.87225494  0.90342480     0.16800
C948        C  0.19233548  0.89982696  0.90399078     0.26300
C949        C  0.21425402  0.90757558  0.89005674    -0.40100
C950        C  0.20921189  0.88699192  0.87571630     0.33300
C951        C  0.13098811  0.82416524  0.88732849     0.01900
F952        F  0.14518488  0.86521538  0.91721084    -0.12400
F953        F  0.22972280  0.89396960  0.86191469    -0.12900
C954        C  0.12799607  0.79653713  0.88842291     0.16900
C955        C  0.09988724  0.77031128  0.88811660     0.26300
C956        C  0.07430710  0.77135581  0.88662845    -0.40000
C957        C  0.07763297  0.79919713  0.88497121     0.33200
C958        C  0.10563588  0.82523744  0.88537011     0.14900
F959        F  0.15224791  0.79500941  0.89037784    -0.12400
F960        F  0.05376326  0.80145345  0.88341949    -0.12900
F961        F  0.09778475  0.74400314  0.88945392    -0.15200
F962        F  0.10802401  0.85168788  0.88392186    -0.13700
F963        F  0.17731180  0.84061987  0.86046714    -0.13700
F964        F  0.19667517  0.91887364  0.91828801    -0.15200
C965        C  0.37084182  0.03205634  0.81269929     0.14900
C966        C  0.39909643  0.05735089  0.81589221     0.01900
C967        C  0.40816791  0.06698261  0.83464036     0.16800
C968        C  0.38884898  0.05220750  0.84992932     0.26300
C969        C  0.35994288  0.02762381  0.84670498    -0.40100
C970        C  0.35142317  0.01736374  0.82790682     0.33300
C971        C  0.41796772  0.07490012  0.79952770     0.01900
F972        F  0.43516193  0.09169336  0.83806323    -0.12400
F973        F  0.32403168  0.99346257  0.82413134    -0.12900
C974        C  0.40860153  0.08882608  0.78742611     0.16900
C975        C  0.42554089  0.10479539  0.77164475     0.26300
C976        C  0.45319176  0.10822153  0.76752770    -0.40000
C977        C  0.46174316  0.09283888  0.77960887     0.33200
C978        C  0.44461088  0.07703707  0.79554252     0.14900
F979        F  0.38294643  0.08725127  0.79105006    -0.12400
F980        F  0.48529760  0.09085387  0.77563676    -0.12900
F981        F  0.41510228  0.11783555  0.76062130    -0.15200
F982        F  0.45350906  0.06272032  0.80671855    -0.13700
F983        F  0.36182363  0.02198554  0.79471572    -0.13700
F984        F  0.39792861  0.06305732  0.86776490    -0.15200
C985        C  0.27770978  0.15475580  0.90175898     0.14900
C986        C  0.25771194  0.13268361  0.88920501     0.01900
C987        C  0.24108556  0.13854573  0.87684024     0.16800
C988        C  0.24507350  0.16658706  0.87666770     0.26300
C989        C  0.26605292  0.18917732  0.88873912    -0.40100
C990        C  0.28184782  0.18270748  0.90157735     0.33300
C991        C  0.25670234  0.10475051  0.88798088     0.01900
F992        F  0.22143569  0.11726407  0.86472920    -0.12400
F993        F  0.30168495  0.20353007  0.91385390    -0.12900
C994        C  0.24710672  0.08545314  0.90357663     0.16900
C995        C  0.25146176  0.06202193  0.90379869     0.26300
C996        C  0.26587050  0.05782941  0.88847077    -0.40000
C997        C  0.27375751  0.07620381  0.87236152     0.33200
C998        C  0.26924629  0.09949086  0.87217255     0.14900
F999        F  0.23458317  0.09007118  0.91889289    -0.12400
F1000       F  0.28739826  0.07281060  0.85718718    -0.12900
F1001       F  0.24236296  0.04405745  0.91925922    -0.15200
F1002       F  0.27906883  0.11823241  0.85708646    -0.13700
F1003       F  0.29427062  0.14960898  0.91365238    -0.13700
F1004       F  0.22918198  0.17185198  0.86425890    -0.15200
C1005       C  0.42030935  0.33306801  0.78259595     0.14900
C1006       C  0.40703747  0.30912390  0.79514629     0.01900
C1007       C  0.41160092  0.28598679  0.79240201     0.16800
C1008       C  0.42915496  0.28663533  0.77728002     0.26300
C1009       C  0.44366188  0.31127796  0.76464742    -0.40100
C1010       C  0.43794019  0.33405846  0.76755336     0.33300
C1011       C  0.38787859  0.30808709  0.81085420     0.01900
F1012       F  0.39806058  0.26203578  0.80405533    -0.12400
F1013       F  0.45013275  0.35806325  0.75600511    -0.12900
C1014       C  0.36041379  0.30422219  0.80691055     0.16900
C1015       C  0.34208135  0.30273335  0.82173039     0.26300
C1016       C  0.35098087  0.30539009  0.84087369    -0.40000
C1017       C  0.37903268  0.31023031  0.84468353     0.33200
C1018       C  0.39711374  0.31129411  0.82982709     0.14900
F1019       F  0.35097743  0.30106868  0.78867011    -0.12400
F1020       F  0.38872585  0.31305934  0.86282552    -0.12900
F1021       F  0.31538655  0.29818851  0.81728629    -0.15200
F1022       F  0.42372460  0.31541178  0.83396150    -0.13700
F1023       F  0.41647791  0.35590382  0.78506131    -0.13700
F1024       F  0.42990047  0.26201935  0.77465559    -0.15200
C1025       C  0.83130176  0.72641731  0.87506187     0.14900
C1026       C  0.84502054  0.72697541  0.89206836     0.01900
C1027       C  0.83177117  0.72612732  0.90949884     0.16800
C1028       C  0.80390927  0.72243916  0.90989852     0.26300
C1029       C  0.78890564  0.71941584  0.89278423    -0.40100
C1030       C  0.80358424  0.72283418  0.87536894     0.33300
C1031       C  0.86995806  0.72282558  0.89143694     0.01900
F1032       F  0.84487311  0.72673935  0.92609873    -0.12400
F1033       F  0.79046269  0.72094724  0.85852005    -0.12900
C1034       C  0.89920294  0.74645178  0.89428935     0.16900
C1035       C  0.92238262  0.74164019  0.89338149     0.26300
C1036       C  0.91641952  0.71296627  0.88977280    -0.40000
C1037       C  0.88692060  0.68952087  0.88682913     0.33200
C1038       C  0.86403756  0.69446615  0.88763987     0.14900
F1039       F  0.90523500  0.77407050  0.89789853    -0.12400
F1040       F  0.88000609  0.66160807  0.88316496    -0.12900
F1041       F  0.95045853  0.76490092  0.89631693    -0.15200
F1042       F  0.83582013  0.67136011  0.88486777    -0.13700
F1043       F  0.84397836  0.72741805  0.85808605    -0.13700
F1044       F  0.79097730  0.72002544  0.92701723    -0.15200
C1045       C  0.68940692  0.57569392  0.78555105     0.14900
C1046       C  0.66779569  0.56226018  0.79981622     0.01900
C1047       C  0.64667966  0.53176459  0.79847795     0.16800
C1048       C  0.64579789  0.51540823  0.78251617     0.26300
C1049       C  0.66535010  0.52950938  0.76677227    -0.40100
C1050       C  0.68877386  0.55950608  0.76963317     0.33300
C1051       C  0.66754493  0.58016483  0.81606819     0.01900
F1052       F  0.62645491  0.51774543  0.81259765    -0.12400
F1053       F  0.71011759  0.57409551  0.75626009    -0.12900
C1054       C  0.66302172  0.60328320  0.81282600     0.16900
C1055       C  0.66416531  0.62117074  0.82788299     0.26300
C1056       C  0.66984945  0.61635284  0.84663400    -0.40000
C1057       C  0.67362761  0.59262507  0.84988415     0.33200
C1058       C  0.67252106  0.57481594  0.83477856     0.14900
F1059       F  0.65752913  0.60859230  0.79496890    -0.12400
F1060       F  0.67962199  0.58729175  0.86758801    -0.12900
F1061       F  0.66005229  0.64345705  0.82399653    -0.15200
F1062       F  0.67750960  0.55303158  0.83833505    -0.13700
F1063       F  0.71117292  0.60481662  0.78693911    -0.13700
F1064       F  0.62641252  0.48566181  0.78320380    -0.15200
C1065       C  0.96314786  0.64514288  0.02490290     0.14900
C1066       C  0.98635370  0.66609047  0.01324448     0.01900
C1067       C  0.01193380  0.68967162  0.02171470     0.16800
C1068       C  0.01380846  0.69305144  0.04149999     0.26300
C1069       C  0.99009494  0.67275793  0.05330119    -0.40100
C1070       C  0.96503987  0.64827488  0.04475063     0.33300
C1071       C  0.98294753  0.66510396  0.99229092     0.01900
F1072       F  0.03452557  0.71040957  0.01074064    -0.12400
F1073       F  0.94177924  0.62799855  0.05547902    -0.12900
C1074       C  0.96222364  0.67014665  0.98425092     0.16900
C1075       C  0.96095823  0.67260357  0.96453821     0.26300
C1076       C  0.98044467  0.67001989  0.95239363    -0.40000
C1077       C  0.00011475  0.66333664  0.96045475     0.33200
C1078       C  0.00154562  0.66121768  0.98025076     0.14900
F1079       F  0.94404256  0.67403064  0.99559226    -0.12400
F1080       F  0.01875406  0.65994340  0.94927533    -0.12900
F1081       F  0.94089723  0.67800228  0.95740640    -0.15200
F1082       F  0.02145579  0.65588276  0.98771524    -0.13700
F1083       F  0.93829156  0.62204441  0.01699170    -0.13700
F1084       F  0.03852375  0.71688265  0.04899711    -0.15200
C1085       C  0.34542337  0.02211419  0.02388598     0.14900
C1086       C  0.32490152  0.99958355  0.01160662     0.01900
C1087       C  0.29876439  0.97548654  0.01937349     0.16800
C1088       C  0.29301097  0.97411494  0.03887175     0.26300
C1089       C  0.31313665  0.99697506  0.05114234    -0.40100
C1090       C  0.33960209  0.02084721  0.04345420     0.33300
C1091       C  0.32921228  0.00205373  0.99059275     0.01900
F1092       F  0.27798036  0.95382882  0.00793360    -0.12400
F1093       F  0.35933816  0.04359839  0.05470861    -0.12900
C1094       C  0.32599574  0.97830079  0.97980996     0.16900
C1095       C  0.32452449  0.97845260  0.95990916     0.26300
C1096       C  0.32679309  0.00266477  0.95037968    -0.40000
C1097       C  0.33272821  0.02752144  0.96115436     0.33200
C1098       C  0.33347418  0.02702360  0.98101127     0.14900
F1099       F  0.32315897  0.95440696  0.98860973    -0.12400
F1100       F  0.33569011  0.05164471  0.95262199    -0.12900
F1101       F  0.31973717  0.95440677  0.95007752    -0.15200
F1102       F  0.33606768  0.05011842  0.99087857    -0.13700
F1103       F  0.37095396  0.04562828  0.01689574    -0.13700
F1104       F  0.26733874  0.95050613  0.04564918    -0.15200
C1105       C  0.16185811  0.86886839  0.11585142     0.14900
C1106       C  0.13951181  0.87148312  0.12393433     0.01900
C1107       C  0.14565857  0.89944313  0.12936752     0.16800
C1108       C  0.17407066  0.92469479  0.12669159     0.26300
C1109       C  0.19655029  0.92217691  0.11834840    -0.40100
C1110       C  0.19007114  0.89389456  0.11304953     0.33300
C1111       C  0.10942618  0.84491602  0.12528380     0.01900
F1112       F  0.12405064  0.90224261  0.13702232    -0.12400
F1113       F  0.21104245  0.89027804  0.10517272    -0.12900
C1114       C  0.10187705  0.82449972  0.14004198     0.16900
C1115       C  0.07548306  0.79663343  0.13925144     0.26300
C1116       C  0.05661901  0.78866210  0.12342685    -0.40000
C1117       C  0.06356605  0.80998196  0.10924711     0.33200
C1118       C  0.08975552  0.83788858  0.11022038     0.14900
F1119       F  0.12086963  0.83097597  0.15465074    -0.12400
F1120       F  0.04564078  0.80346343  0.09401262    -0.12900
F1121       F  0.06953816  0.77681987  0.15328074    -0.15200
F1122       F  0.09689451  0.85745338  0.09582049    -0.13700
F1123       F  0.15610960  0.84197687  0.11028329    -0.13700
F1124       F  0.17931791  0.95154002  0.13185143    -0.15200
C1125       C  0.84301905  0.16916892  0.12338722     0.14900
C1126       C  0.83925435  0.14290036  0.11605136     0.01900
C1127       C  0.86412798  0.14330516  0.10934856     0.16800
C1128       C  0.89227813  0.16914296  0.11033054     0.26300
C1129       C  0.89629393  0.19554343  0.11773261    -0.40100
C1130       C  0.87128684  0.19530820  0.12418680     0.33300
C1131       C  0.80976159  0.11467410  0.11573049     0.01900
F1132       F  0.86109087  0.11861474  0.10152635    -0.12400
F1133       F  0.87421423  0.22013120  0.13165871    -0.12900
C1134       C  0.78613462  0.11205170  0.10540988     0.16900
C1135       C  0.75941740  0.08445892  0.10363096     0.26300
C1136       C  0.75583857  0.05893766  0.11218871    -0.40000
C1137       C  0.77910066  0.06210972  0.12333185     0.33200
C1138       C  0.80571247  0.08958233  0.12499035     0.14900
F1139       F  0.78933665  0.13595221  0.09639174    -0.12400
F1140       F  0.77636884  0.03854940  0.13252321    -0.12900
F1141       F  0.73741605  0.08269453  0.09311554    -0.15200
F1142       F  0.82780572  0.09165442  0.13557157    -0.13700
F1143       F  0.81942105  0.16932476  0.13018320    -0.13700
F1144       F  0.91556646  0.16832288  0.10363176    -0.15200
C1145       C  0.29580200  0.31985243  0.01721595     0.14900
C1146       C  0.31264976  0.30956069  0.00923766     0.01900
C1147       C  0.32621500  0.29962489  0.02136538     0.16800
C1148       C  0.32225237  0.29914096  0.04112018     0.26300
C1149       C  0.30426689  0.30822462  0.04912584    -0.40100
C1150       C  0.29157132  0.31914262  0.03692860     0.33300
C1151       C  0.31315419  0.30621297  0.98828579     0.01900
F1152       F  0.34251644  0.28944531  0.01401052    -0.12400
F1153       F  0.27427794  0.32833901  0.04398914    -0.12900
C1154       C  0.32508794  0.33088757  0.97614944     0.16900
C1155       C  0.32196442  0.32707006  0.95633766     0.26300
C1156       C  0.30668184  0.29842003  0.94833569    -0.40000
C1157       C  0.29600981  0.27385680  0.96061018     0.33200
C1158       C  0.29922347  0.27776402  0.98030328     0.14900
F1159       F  0.33944346  0.35867660  0.98353810    -0.12400
F1160       F  0.28185417  0.24578480  0.95366155    -0.12900
F1161       F  0.33313962  0.35135983  0.94509398    -0.15200
F1162       F  0.28748177  0.25352011  0.99166948    -0.13700
F1163       F  0.28194342  0.32896176  0.00578974    -0.13700
F1164       F  0.33461091  0.28810052  0.05227425    -0.15200
C1165       C  0.31918667  0.19127375  0.10993411     0.14900
C1166       C  0.29428206  0.16235538  0.11204196     0.01900
C1167       C  0.26651189  0.15832723  0.11522455     0.16800
C1168       C  0.26347468  0.18260616  0.11579235     0.26300
C1169       C  0.28819001  0.21160861  0.11317949    -0.40100
C1170       C  0.31621325  0.21570992  0.11051120     0.33300
C1171       C  0.29673971  0.13611162  0.11068463     0.01900
F1172       F  0.24222208  0.13071515  0.11791692    -0.12400
F1173       F  0.34061339  0.24323193  0.10782398    -0.12900
C1174       C  0.31398619  0.13195421  0.12366274     0.16900
C1175       C  0.31374251  0.10565833  0.12346575     0.26300
C1176       C  0.29611817  0.08300619  0.11031026    -0.40000
C1177       C  0.28001406  0.08793752  0.09674700     0.33200
C1178       C  0.28036232  0.11417631  0.09694550     0.14900
F1179       F  0.33012761  0.15285359  0.13703208    -0.12400
F1180       F  0.26390504  0.06738024  0.08317608    -0.12900
F1181       F  0.32989921  0.10198367  0.13659822    -0.15200
F1182       F  0.26451708  0.11814304  0.08370606    -0.13700
F1183       F  0.34625260  0.19578612  0.10670579    -0.13700
F1184       F  0.23621848  0.17761621  0.11902762    -0.15200
C1185       C  0.13696538  0.23410995  0.13278489     0.14900
C1186       C  0.12409984  0.24150333  0.11832188     0.01900
C1187       C  0.13983033  0.25349201  0.10123849     0.16800
C1188       C  0.16798220  0.25857935  0.09877678     0.26300
C1189       C  0.18152105  0.25243126  0.11351355    -0.40100
C1190       C  0.16545228  0.23963743  0.13046006     0.33300
C1191       C  0.09528744  0.23875399  0.12119215     0.01900
F1192       F  0.12857591  0.26177602  0.08716681    -0.12400
F1193       F  0.17742472  0.23296303  0.14496716    -0.12900
C1194       C  0.09107709  0.25284686  0.13667960     0.16900
C1195       C  0.06646994  0.25532857  0.13732701     0.26300
C1196       C  0.04600816  0.24430065  0.12229716    -0.40000
C1197       C  0.04880779  0.22787526  0.10776001     0.33200
C1198       C  0.07312539  0.22500770  0.10726786     0.14900
F1199       F  0.11191700  0.26631299  0.15042749    -0.12400
F1200       F  0.02851774  0.21543423  0.09361556    -0.12900
F1201       F  0.06400653  0.27055838  0.15190698    -0.15200
F1202       F  0.07571270  0.20989576  0.09266676    -0.13700
F1203       F  0.12205573  0.22176876  0.14924865    -0.13700
F1204       F  0.18238414  0.27070596  0.08213642    -0.15200
C1205       C  0.66761180  0.63049047  0.97973604     0.14900
C1206       C  0.65865971  0.64624070  0.99070388     0.01900
C1207       C  0.64945268  0.66304261  0.98143704     0.16800
C1208       C  0.65133284  0.66587541  0.96156956     0.26300
C1209       C  0.66251445  0.65193360  0.95059352    -0.40100
C1210       C  0.66936920  0.63313065  0.95988755     0.33300
C1211       C  0.66259053  0.64819739  0.01165897     0.01900
F1212       F  0.64063601  0.67843922  0.99171862    -0.12400
F1213       F  0.67887430  0.61811258  0.94986884    -0.12900
C1214       C  0.69124170  0.66216057  0.01918830     0.16900
C1215       C  0.69580978  0.66624437  0.03879141     0.26300
C1216       C  0.67180799  0.65664536  0.05135159    -0.40000
C1217       C  0.64294228  0.64141310  0.04389352     0.33200
C1218       C  0.63840743  0.63742756  0.02416535     0.14900
F1219       F  0.71501628  0.67286342  0.00744263    -0.12400
F1220       F  0.61922888  0.63145105  0.05559008    -0.12900
F1221       F  0.72387195  0.67982366  0.04547336    -0.15200
F1222       F  0.61046828  0.62331420  0.01724724    -0.13700
F1223       F  0.67584883  0.61347555  0.98837652    -0.13700
F1224       F  0.64408445  0.68390042  0.95327219    -0.15200
C1225       C  0.70210801  0.81104722  0.09411069     0.14900
C1226       C  0.70231883  0.82418577  0.11142054     0.01900
C1227       C  0.70491552  0.81242123  0.12851232     0.16800
C1228       C  0.70682058  0.78740751  0.12831350     0.26300
C1229       C  0.70564075  0.77348631  0.11095998    -0.40100
C1230       C  0.70371885  0.78593086  0.09383434     0.33300
C1231       C  0.69915363  0.84981843  0.11146890     0.01900
F1232       F  0.70521892  0.82496328  0.14539599    -0.12400
F1233       F  0.70266181  0.77345403  0.07677024    -0.12900
C1234       C  0.67197942  0.84605694  0.11621968     0.16900
C1235       C  0.66824737  0.86983673  0.11487562     0.26300
C1236       C  0.69179042  0.89796229  0.10881850    -0.40000
C1237       C  0.71922059  0.90164002  0.10437630     0.33200
C1238       C  0.72273854  0.87768524  0.10560213     0.14900
F1239       F  0.64874415  0.81905092  0.12157942    -0.12400
F1240       F  0.74253716  0.92819872  0.09847767    -0.12900
F1241       F  0.64136990  0.86506822  0.11922897    -0.15200
F1242       F  0.74909797  0.88151516  0.10082825    -0.13700
F1243       F  0.69934936  0.82205291  0.07746375    -0.13700
F1244       F  0.70882264  0.77632849  0.14514964    -0.15200
C1245       C  0.84940407  0.65406711  0.12439846     0.14900
C1246       C  0.84735926  0.67908079  0.12350283     0.01900
C1247       C  0.87343914  0.70723716  0.12171056     0.16800
C1248       C  0.90100277  0.71039953  0.12053680     0.26300
C1249       C  0.90322071  0.68538732  0.12126688    -0.40100
C1250       C  0.87702828  0.65717119  0.12338961     0.33300
C1251       C  0.81819139  0.67612860  0.12361950     0.01900
F1252       F  0.87213717  0.73176068  0.12049151    -0.12400
F1253       F  0.87799383  0.63243150  0.12417589    -0.12900
C1254       C  0.81194453  0.69136777  0.13720330     0.16900
C1255       C  0.78617263  0.69179335  0.13586954     0.26300
C1256       C  0.76572347  0.67632402  0.12120067    -0.40000
C1257       C  0.77143711  0.66010873  0.10804686     0.33200
C1258       C  0.79748126  0.66014873  0.10919066     0.14900
F1259       F  0.83106407  0.70616648  0.15166410    -0.12400
F1260       F  0.75270566  0.64570493  0.09334398    -0.12900
F1261       F  0.78128871  0.70745614  0.14889565    -0.15200
F1262       F  0.80320882  0.64585832  0.09558027    -0.13700
F1263       F  0.82462379  0.62658427  0.12630560    -0.13700
F1264       F  0.92546188  0.73806259  0.11846160    -0.15200
C1265       C  0.69416173  0.85501296  0.86142635     0.14900
C1266       C  0.67508988  0.83283988  0.87437964     0.01900
C1267       C  0.65653444  0.83753135  0.88590909     0.16800
C1268       C  0.65816036  0.86451190  0.88519553     0.26300
C1269       C  0.67843341  0.88742519  0.87292654    -0.40100
C1270       C  0.69596367  0.88202242  0.86074457     0.33300
C1271       C  0.67699518  0.80641807  0.87718331     0.01900
F1272       F  0.63807054  0.81667972  0.89868992    -0.12400
F1273       F  0.71574494  0.90324672  0.84862826    -0.12900
C1274       C  0.70405831  0.81043855  0.88254338     0.16900
C1275       C  0.70661403  0.78613236  0.88530901     0.26300
C1276       C  0.68210979  0.75694698  0.88271070    -0.40000
C1277       C  0.65485599  0.75289570  0.87739163     0.33200
C1278       C  0.65231694  0.77741055  0.87476683     0.14900
F1279       F  0.72809590  0.83813183  0.88546248    -0.12400
F1280       F  0.63072899  0.72528401  0.87447190    -0.12900
F1281       F  0.73322704  0.79138878  0.89076044    -0.15200
F1282       F  0.62588972  0.77282670  0.86950920    -0.13700
F1283       F  0.71181312  0.85081370  0.84976465    -0.13700
F1284       F  0.64091245  0.86865788  0.89728267    -0.15200
C1285       C  0.64213716  0.95967810  0.96743078     0.14900
C1286       C  0.66545175  0.97745409  0.98001733     0.01900
C1287       C  0.69395669  0.99666746  0.97265326     0.16800
C1288       C  0.69935238  0.99756462  0.95312600     0.26300
C1289       C  0.67619190  0.97941422  0.94040060    -0.40100
C1290       C  0.64740540  0.96069363  0.94778946     0.33300
C1291       C  0.66103148  0.97412485  0.00092240     0.01900
F1292       F  0.71697453  0.01361707  0.98452966    -0.12400
F1293       F  0.62450746  0.94255475  0.93614069    -0.12900
C1294       C  0.65367904  0.94743490  0.00960336     0.16900
C1295       C  0.65368644  0.94529880  0.02943636     0.26300
C1296       C  0.66067145  0.96974768  0.04098688    -0.40000
C1297       C  0.66681934  0.99609473  0.03229190     0.33200
C1298       C  0.66724247  0.99833910  0.01242593     0.14900
F1299       F  0.64815106  0.92392808  0.99880914    -0.12400
F1300       F  0.67432012  0.02031294  0.04297775    -0.12900
F1301       F  0.64745064  0.91946794  0.03732612    -0.15200
F1302       F  0.67468711  0.02448033  0.00440090    -0.13700
F1303       F  0.61434353  0.94096194  0.97421870    -0.13700
F1304       F  0.72754075  0.01576199  0.94681188    -0.15200
C1305       C  0.68563024  0.07282247  0.82895151     0.14900
C1306       C  0.66592333  0.05884410  0.81370786     0.01900
C1307       C  0.64759251  0.02762264  0.81368086     0.16800
C1308       C  0.65044810  0.01082296  0.82775308     0.26300
C1309       C  0.67111413  0.02483260  0.84253471    -0.40100
C1310       C  0.68772902  0.05606916  0.84337763     0.33300
C1311       C  0.66602716  0.07644735  0.79716699     0.01900
F1312       F  0.62718516  0.01329071  0.79977723    -0.12400
F1313       F  0.70740460  0.07061556  0.85761118    -0.12900
C1314       C  0.66964352  0.06901019  0.77867437     0.16900
C1315       C  0.66969580  0.08484085  0.76291915     0.26300
C1316       C  0.66453130  0.10820360  0.76487726    -0.40000
C1317       C  0.66467274  0.11774587  0.78378760     0.33200
C1318       C  0.66436556  0.10156585  0.79958389     0.14900
F1319       F  0.67456852  0.04696707  0.77579771    -0.12400
F1320       F  0.66359879  0.14210189  0.78704094    -0.12900
F1321       F  0.67725288  0.07821608  0.74608771    -0.15200
F1322       F  0.66167835  0.11014813  0.81725583    -0.13700
F1323       F  0.70429848  0.10273591  0.82932826    -0.13700
F1324       F  0.63312112  0.98081134  0.82679586    -0.15200
C1325       C  0.02550567  0.31736514  0.02650138     0.14900
C1326       C  0.99991944  0.30299929  0.01527741     0.01900
C1327       C  0.97214561  0.28891910  0.02417402     0.16800
C1328       C  0.96980307  0.28843173  0.04401848     0.26300
C1329       C  0.99529304  0.30106404  0.05547716    -0.40100
C1330       C  0.02326776  0.31623718  0.04643347     0.33300
C1331       C  0.00168806  0.30047442  0.99438014     0.01900
F1332       F  0.94714878  0.27465823  0.01356070    -0.12400
F1333       F  0.04849641  0.32908086  0.05680892    -0.12900
C1334       C  0.99510937  0.27354138  0.98645605     0.16900
C1335       C  0.99409117  0.26975539  0.96672806     0.26300
C1336       C  0.99938967  0.29286383  0.95440054    -0.40000
C1337       C  0.00648584  0.32009388  0.96243686     0.33200
C1338       C  0.00776538  0.32386851  0.98226440     0.14900
F1339       F  0.98927328  0.25066386  0.99791836    -0.12400
F1340       F  0.01144502  0.34284665  0.95117785    -0.12900
F1341       F  0.98759732  0.24323291  0.95977775    -0.15200
F1342       F  0.01405935  0.35006580  0.98966030    -0.13700
F1343       F  0.05262168  0.33123166  0.01816823    -0.13700
F1344       F  0.94240914  0.27436000  0.05194324    -0.15200
C1345       C  0.83493578  0.08323989  0.86544277     0.14900
C1346       C  0.84939467  0.09187132  0.88307949     0.01900
C1347       C  0.83720376  0.07231983  0.89855236     0.16800
C1348       C  0.80960561  0.04583868  0.89691717     0.26300
C1349       C  0.79373187  0.03848933  0.87971366    -0.40100
C1350       C  0.80756818  0.05655521  0.86368564     0.33300
C1351       C  0.87522073  0.12244363  0.88578778     0.01900
F1352       F  0.85135289  0.07963696  0.91555146    -0.12400
F1353       F  0.79371316  0.04962575  0.84660398    -0.12900
C1354       C  0.87369078  0.14114166  0.89914341     0.16900
C1355       C  0.89680893  0.17076100  0.90077668     0.26300
C1356       C  0.92192873  0.18244995  0.88895097    -0.40000
C1357       C  0.92362320  0.16352724  0.87576280     0.33200
C1358       C  0.90047797  0.13378942  0.87424409     0.14900
F1359       F  0.84921670  0.13100828  0.91015075    -0.12400
F1360       F  0.94730210  0.17386901  0.86398535    -0.12900
F1361       F  0.89432785  0.18801483  0.91385092    -0.15200
F1362       F  0.90260336  0.11608069  0.86137183    -0.13700
F1363       F  0.84606616  0.10181543  0.85029524    -0.13700
F1364       F  0.79779553  0.02830656  0.91250051    -0.15200
C1365       C  0.18660163  0.31421109  0.87398490     0.14900
C1366       C  0.15956034  0.29101958  0.88145407     0.01900
C1367       C  0.15819678  0.26626473  0.88929732     0.16800
C1368       C  0.18315609  0.26444047  0.88943120     0.26300
C1369       C  0.21041658  0.28776392  0.88220803    -0.40100
C1370       C  0.21189932  0.31274381  0.87451575     0.33300
C1371       C  0.13244999  0.29199568  0.88083346     0.01900
F1372       F  0.13265768  0.24392668  0.89714915    -0.12400
F1373       F  0.23758232  0.33535659  0.86702466    -0.12900
C1374       C  0.10698512  0.26918683  0.87174797     0.16900
C1375       C  0.08054942  0.26834086  0.87242913     0.26300
C1376       C  0.07882273  0.29027854  0.88235511    -0.40000
C1377       C  0.10471058  0.31377249  0.89089053     0.33200
C1378       C  0.13125285  0.31460766  0.89010585     0.14900
F1379       F  0.10761771  0.24735682  0.86236534    -0.12400
F1380       F  0.10420793  0.33544003  0.90057973    -0.12900
F1381       F  0.05646637  0.24551187  0.86367816    -0.15200
F1382       F  0.15544140  0.33679566  0.89916517    -0.13700
F1383       F  0.18830569  0.33791904  0.86573774    -0.13700
F1384       F  0.18069630  0.23999541  0.89707208    -0.15200
C1385       C  0.91367113  0.31344272  0.84178948     0.14900
C1386       C  0.92325880  0.31746026  0.82275788     0.01900
C1387       C  0.94965367  0.31898888  0.81849060     0.16800
C1388       C  0.96525803  0.31496169  0.83269391     0.26300
C1389       C  0.95526632  0.30996687  0.85170615    -0.40100
C1390       C  0.92969594  0.31012398  0.85615556     0.33300
C1391       C  0.90524065  0.31834918  0.80705572     0.01900
F1392       F  0.96008268  0.32378301  0.80035675    -0.12400
F1393       F  0.91935794  0.30577729  0.87428436    -0.12900
C1394       C  0.89653527  0.33878387  0.80695942     0.16900
C1395       C  0.88181151  0.34095407  0.79120687     0.26300
C1396       C  0.87667320  0.32357319  0.77461550    -0.40000
C1397       C  0.88312850  0.30116436  0.77587351     0.33200
C1398       C  0.89717905  0.29876695  0.79169566     0.14900
F1399       F  0.90281748  0.35719620  0.82199833    -0.12400
F1400       F  0.87747005  0.28243519  0.76112653    -0.12900
F1401       F  0.87194707  0.35937130  0.79281690    -0.15200
F1402       F  0.90339180  0.27736058  0.79182711    -0.13700
F1403       F  0.88792854  0.31111660  0.84636381    -0.13700
F1404       F  0.98971590  0.31507348  0.82761233    -0.15200
C1405       C  0.06850723  0.66419125  0.33530958     0.14900
C1406       C  0.05859559  0.65885424  0.31640043     0.01900
C1407       C  0.03104013  0.65457635  0.31223319     0.16800
C1408       C  0.01451924  0.65755482  0.32645136     0.26300
C1409       C  0.02498076  0.66437431  0.34528633    -0.40100
C1410       C  0.05175448  0.66668218  0.34967249     0.33300
C1411       C  0.07724764  0.65885494  0.30077284     0.01900
F1412       F  0.02031629  0.64790232  0.29423069    -0.12400
F1413       F  0.06261667  0.67295045  0.36764223    -0.12900
C1414       C  0.08558896  0.63826213  0.30043595     0.16900
C1415       C  0.10152988  0.63710161  0.28503658     0.26300
C1416       C  0.10769528  0.65522585  0.26868598    -0.40000
C1417       C  0.10187535  0.67802897  0.27030193     0.33200
C1418       C  0.08658270  0.67949917  0.28596985     0.14900
F1419       F  0.07789503  0.61880072  0.31497099    -0.12400
F1420       F  0.10930018  0.69783524  0.25601066    -0.12900
F1421       F  0.11194821  0.61921725  0.28699357    -0.15200
F1422       F  0.08041700  0.70092015  0.28654428    -0.13700
F1423       F  0.09511039  0.66845906  0.33970916    -0.13700
F1424       F  0.98855493  0.65440255  0.32162846    -0.15200
C1425       C  0.05523063  0.63996873  0.21860883     0.14900
C1426       C  0.06629508  0.64238001  0.20017420     0.01900
C1427       C  0.09208453  0.64200693  0.19786120     0.16800
C1428       C  0.10839686  0.64303046  0.21373275     0.26300
C1429       C  0.10015401  0.64592848  0.23244351    -0.40100
C1430       C  0.07107220  0.64031465  0.23441943     0.33300
C1431       C  0.05233307  0.64768108  0.18369161     0.01900
F1432       F  0.10207774  0.64167890  0.18014737    -0.12400
F1433       F  0.05664594  0.63353808  0.25134533    -0.12900
C1434       C  0.06942722  0.67317109  0.17248114     0.16900
C1435       C  0.05644374  0.68007415  0.15795884     0.26300
C1436       C  0.02592069  0.66177453  0.15433272    -0.40000
C1437       C  0.00873600  0.63616920  0.16544224     0.33200
C1438       C  0.02181832  0.62909153  0.17992000     0.14900
F1439       F  0.09857982  0.69234298  0.17624681    -0.12400
F1440       F  0.97929419  0.61789267  0.16220982    -0.12900
F1441       F  0.07355701  0.70566525  0.14813596    -0.15200
F1442       F  0.00462029  0.60410296  0.19027020    -0.13700
F1443       F  0.02932053  0.63819152  0.22150344    -0.13700
F1444       F  0.13386861  0.64403187  0.21064056    -0.15200
C1445       C  0.06110084  0.43244051  0.29780246     0.14900
C1446       C  0.05644134  0.40461465  0.30165034     0.01900
C1447       C  0.07156301  0.39496677  0.29081099     0.16800
C1448       C  0.09138224  0.41283760  0.27660399     0.26300
C1449       C  0.09725457  0.44152444  0.27263258    -0.40100
C1450       C  0.08058075  0.45041444  0.28326467     0.33300
C1451       C  0.03666651  0.38558511  0.31730563     0.01900
F1452       F  0.06758364  0.36815249  0.29426369    -0.12400
F1453       F  0.08099898  0.47526588  0.27910464    -0.12900
C1454       C  0.01255389  0.35677749  0.31347084     0.16900
C1455       C  0.99768797  0.33658826  0.32830741     0.26300
C1456       C  0.00664698  0.34490173  0.34734541    -0.40000
C1457       C  0.02935611  0.37453800  0.35116662     0.33200
C1458       C  0.04418523  0.39461465  0.33629101     0.14900
F1459       F  0.00426267  0.34781327  0.29522857    -0.12400
F1460       F  0.03853214  0.38377517  0.36924624    -0.12900
F1461       F  0.97557329  0.30851200  0.32387307    -0.15200
F1462       F  0.06735370  0.42231363  0.34039977    -0.13700
F1463       F  0.04590960  0.44184436  0.30772789    -0.13700
F1464       F  0.10533086  0.40195877  0.26684220    -0.15200
C1465       C  0.05700002  0.41528017  0.21783073     0.14900
C1466       C  0.06800140  0.40146362  0.20686067     0.01900
C1467       C  0.09474335  0.40486160  0.21203809     0.16800
C1468       C  0.11070767  0.42226583  0.22769078     0.26300
C1469       C  0.10131555  0.43870408  0.23809511    -0.40100
C1470       C  0.07308586  0.43324558  0.23330051     0.33300
C1471       C  0.05094243  0.38213572  0.19058362     0.01900
F1472       F  0.10481217  0.38999754  0.20240945    -0.12400
F1473       F  0.06128462  0.44612536  0.24332546    -0.12900
C1474       C  0.06252005  0.38949491  0.17205079     0.16900
C1475       C  0.04732613  0.37031895  0.15682831     0.26300
C1476       C  0.02027860  0.34313850  0.15987910    -0.40000
C1477       C  0.00843922  0.33624905  0.17847796     0.33200
C1478       C  0.02366973  0.35553987  0.19364387     0.14900
F1479       F  0.08888995  0.41509789  0.16875492    -0.12400
F1480       F  0.98249943  0.31042111  0.18217083    -0.12900
F1481       F  0.05979183  0.37793919  0.13924831    -0.15200
F1482       F  0.01242806  0.34760851  0.21151700    -0.13700
F1483       F  0.03070815  0.41168404  0.21339043    -0.13700
F1484       F  0.13372265  0.42037331  0.23324644    -0.15200
C1485       C  0.13974663  0.53927869  0.26800459     0.14900
C1486       C  0.13011488  0.54725925  0.25203598     0.01900
C1487       C  0.12064718  0.52883454  0.23605065     0.16800
C1488       C  0.11882232  0.50182479  0.23633193     0.26300
C1489       C  0.12438479  0.49124275  0.25332095    -0.40100
C1490       C  0.13740627  0.51190555  0.26855425     0.33300
C1491       C  0.12886644  0.57422055  0.25196319     0.01900
F1492       F  0.11323201  0.53719407  0.21995303    -0.12400
F1493       F  0.14620245  0.50484070  0.28457482    -0.12900
C1494       C  0.15435138  0.60231876  0.24905084     0.16900
C1495       C  0.15267362  0.62748959  0.24769639     0.26300
C1496       C  0.12518636  0.62532926  0.25004862    -0.40000
C1497       C  0.09953171  0.59629042  0.25197005     0.33200
C1498       C  0.10149063  0.57140943  0.25322354     0.14900
F1499       F  0.18092928  0.60527369  0.24686845    -0.12400
F1500       F  0.07230854  0.59196897  0.25356911    -0.12900
F1501       F  0.17799815  0.65328278  0.24308622    -0.15200
F1502       F  0.07643425  0.54433457  0.25588808    -0.13700
F1503       F  0.15035942  0.55748104  0.28337999    -0.13700
F1504       F  0.11278683  0.48716421  0.21955101    -0.15200
C1505       C  0.31453628  0.38551273  0.32886701     0.14900
C1506       C  0.29117078  0.37888264  0.31655604     0.01900
C1507       C  0.26358492  0.35247256  0.31936378     0.16800
C1508       C  0.25967857  0.33250122  0.33363534     0.26300
C1509       C  0.28326556  0.33854455  0.34567166    -0.40100
C1510       C  0.31062196  0.36559677  0.34331431     0.33300
C1511       C  0.29568137  0.39843149  0.30011445     0.01900
F1512       F  0.24025290  0.34605748  0.30824951    -0.12400
F1513       F  0.33387433  0.37241599  0.35460181    -0.12900
C1514       C  0.29131937  0.38729532  0.28154043     0.16900
C1515       C  0.29440609  0.40476843  0.26586151     0.26300
C1516       C  0.30336394  0.43496376  0.26811576    -0.40000
C1517       C  0.30595623  0.44520628  0.28715966     0.33200
C1518       C  0.30289563  0.42751760  0.30278579     0.14900
F1519       F  0.28364436  0.35897354  0.27851365    -0.12400
F1520       F  0.31249988  0.47298380  0.29073897    -0.12900
F1521       F  0.28651678  0.39078338  0.24879289    -0.15200
F1522       F  0.30649141  0.43873920  0.32062045    -0.13700
F1523       F  0.34144795  0.41085623  0.32650456    -0.13700
F1524       F  0.23252687  0.30735982  0.33579343    -0.15200
C1525       C  0.32940882  0.42028156  0.21181353     0.14900
C1526       C  0.30821947  0.41246733  0.19764931     0.01900
C1527       C  0.28897747  0.42246038  0.19930287     0.16800
C1528       C  0.28928847  0.43787054  0.21562092     0.26300
C1529       C  0.30797855  0.44233780  0.23131099    -0.40100
C1530       C  0.32969839  0.43535965  0.22814741     0.33300
C1531       C  0.30545616  0.39249482  0.18188539     0.01900
F1532       F  0.26921868  0.41661392  0.18531048    -0.12400
F1533       F  0.35012345  0.44114548  0.24159604    -0.12900
C1534       C  0.29972243  0.36429670  0.18618367     0.16900
C1535       C  0.29786929  0.34535135  0.17174944     0.26300
C1536       C  0.30133453  0.35394528  0.15249120    -0.40000
C1537       C  0.30694040  0.38224540  0.14818171     0.33200
C1538       C  0.30902323  0.40131626  0.16274758     0.14900
F1539       F  0.29516757  0.35474719  0.20448385    -0.12400
F1540       F  0.31009916  0.39144354  0.12987130    -0.12900
F1541       F  0.29186987  0.31820713  0.17673094    -0.15200
F1542       F  0.31483436  0.42852547  0.15816370    -0.13700
F1543       F  0.34950073  0.41248051  0.21006808    -0.13700
F1544       F  0.27185366  0.44897163  0.21541599    -0.15200
C1545       C  0.18619833  0.45857677  0.27481118     0.14900
C1546       C  0.20362420  0.46608982  0.25837775     0.01900
C1547       C  0.19622242  0.47640094  0.24249392     0.16800
C1548       C  0.17031092  0.47669781  0.24243365     0.26300
C1549       C  0.14996432  0.46471367  0.25786628    -0.40100
C1550       C  0.16011343  0.45858214  0.27480923     0.33300
C1551       C  0.22961156  0.46331208  0.25771742     0.01900
F1552       F  0.21349467  0.48499955  0.22666683    -0.12400
F1553       F  0.14564096  0.45334032  0.29163227    -0.12900
C1554       C  0.22627592  0.43637579  0.25272362     0.16900
C1555       C  0.25098660  0.43409104  0.25119034     0.26300
C1556       C  0.28019878  0.45922085  0.25357257    -0.40000
C1557       C  0.28271744  0.48568252  0.26021573     0.33200
C1558       C  0.25780160  0.48757875  0.26199532     0.14900
F1559       F  0.19896338  0.41220758  0.24913698    -0.12400
F1560       F  0.30875751  0.50952362  0.26616691    -0.12900
F1561       F  0.24628109  0.40729769  0.24655002    -0.15200
F1562       F  0.26115616  0.51317679  0.26830561    -0.13700
F1563       F  0.19442630  0.45108650  0.29092644    -0.13700
F1564       F  0.16364685  0.48586149  0.22640315    -0.15200
C1565       C  0.53851127  0.62776806  0.29176787     0.14900
C1566       C  0.56708974  0.65272406  0.29435642     0.01900
C1567       C  0.57746294  0.67656512  0.28176411     0.16800
C1568       C  0.55938586  0.67591069  0.26724353     0.26300
C1569       C  0.52993692  0.65129650  0.26467049    -0.40100
C1570       C  0.52044281  0.62659397  0.27699350     0.33300
C1571       C  0.58617429  0.65392619  0.31012648     0.01900
F1572       F  0.60521699  0.70090204  0.28365292    -0.12400
F1573       F  0.49488403  0.60012146  0.27422498    -0.12900
C1574       C  0.61416437  0.65875763  0.30629949     0.16900
C1575       C  0.63291783  0.66192334  0.32117325     0.26300
C1576       C  0.62410253  0.66022086  0.34030216    -0.40000
C1577       C  0.59566844  0.65454276  0.34409212     0.33200
C1578       C  0.57694730  0.65136509  0.32916910     0.14900
F1579       F  0.62348953  0.66059921  0.28807941    -0.12400
F1580       F  0.58631139  0.65329456  0.36224608    -0.12900
F1581       F  0.66006192  0.66742125  0.31676431    -0.15200
F1582       F  0.55022016  0.64707794  0.33336720    -0.13700
F1583       F  0.52846137  0.60369412  0.30310277    -0.13700
F1584       F  0.57082084  0.69982695  0.25564021    -0.15200
C1585       C  0.57443176  0.65121622  0.16321474     0.14900
C1586       C  0.57988665  0.64732860  0.18216679     0.01900
C1587       C  0.60381904  0.64437784  0.18599142     0.16800
C1588       C  0.62255071  0.64635598  0.17133160     0.26300
C1589       C  0.61823136  0.65200413  0.15247031    -0.40100
C1590       C  0.59352191  0.65383710  0.14855074     0.33300
C1591       C  0.56199779  0.64827503  0.19811509     0.01900
F1592       F  0.61011786  0.64121563  0.20415130    -0.12400
F1593       F  0.58838353  0.65937808  0.13065815    -0.12900
C1594       C  0.54872438  0.62551288  0.21161083     0.16900
C1595       C  0.53348854  0.62730189  0.22720995     0.26300
C1596       C  0.53027866  0.65179307  0.22980160    -0.40000
C1597       C  0.54571439  0.67558514  0.21667524     0.33200
C1598       C  0.56023921  0.67322117  0.20079064     0.14900
F1599       F  0.55010220  0.60110172  0.20956912    -0.12400
F1600       F  0.54902383  0.70219921  0.21952898    -0.12900
F1601       F  0.52088353  0.60423605  0.23955024    -0.15200
F1602       F  0.57393196  0.69621005  0.18839253    -0.13700
F1603       F  0.55087717  0.65306143  0.15893583    -0.13700
F1604       F  0.64574559  0.64406359  0.17585103    -0.15200
C1605       C  0.43177748  0.59117858  0.26300138     0.14900
C1606       C  0.42138915  0.57114352  0.24775463     0.01900
C1607       C  0.43871770  0.57865010  0.23128306     0.16800
C1608       C  0.46662822  0.60495102  0.23035941     0.26300
C1609       C  0.47915194  0.62384707  0.24655938    -0.40100
C1610       C  0.45987290  0.61744117  0.26227157     0.33300
C1611       C  0.39256818  0.54232344  0.24902343     0.01900
F1612       F  0.42874307  0.56018684  0.21600730    -0.12400
F1613       F  0.46897936  0.63568200  0.27760921    -0.12900
C1614       C  0.36949434  0.53556398  0.23657915     0.16900
C1615       C  0.34259756  0.50813904  0.23755193     0.26300
C1616       C  0.33759787  0.48637766  0.25121272    -0.40000
C1617       C  0.36202920  0.49310621  0.26293943     0.33200
C1618       C  0.38863818  0.52086178  0.26210475     0.14900
F1619       F  0.37293092  0.55572223  0.22347540    -0.12400
F1620       F  0.36169614  0.47259299  0.27429851    -0.12900
F1621       F  0.32102886  0.50309360  0.22521595    -0.15200
F1622       F  0.41129919  0.52630082  0.27357070    -0.13700
F1623       F  0.41474352  0.58511508  0.27876628    -0.13700
F1624       F  0.48025998  0.61196578  0.21314812    -0.15200
C1625       C  0.58353578  0.92476707  0.32333914     0.14900
C1626       C  0.57445972  0.89571697  0.31805798     0.01900
C1627       C  0.58236013  0.87985927  0.32972256     0.16800
C1628       C  0.59979718  0.89311295  0.34598271     0.26300
C1629       C  0.60986431  0.92265800  0.35090275    -0.40100
C1630       C  0.60113342  0.93812890  0.33950782     0.33300
C1631       C  0.55836047  0.88267984  0.29982020     0.01900
F1632       F  0.57435168  0.85195565  0.32485231    -0.12400
F1633       F  0.60972914  0.96631694  0.34398722    -0.12900
C1634       C  0.57206139  0.89549632  0.28239060     0.16900
C1635       C  0.55759354  0.88327500  0.26505812     0.26300
C1636       C  0.52793976  0.85826729  0.26457156    -0.40000
C1637       C  0.51519607  0.84461705  0.28238960     0.33200
C1638       C  0.52994268  0.85688397  0.29962639     0.14900
F1639       F  0.60020806  0.91953755  0.28211405    -0.12400
F1640       F  0.48748500  0.81997558  0.28322824    -0.12900
F1641       F  0.57384912  0.89530453  0.24903580    -0.15200
F1642       F  0.51602620  0.84386379  0.31623288    -0.13700
F1643       F  0.57546464  0.94031122  0.31271854    -0.13700
F1644       F  0.60814947  0.87750743  0.35629205    -0.15200
C1645       C  0.54607913  0.86854637  0.19515397     0.14900
C1646       C  0.55413295  0.89809884  0.19440731     0.01900
C1647       C  0.54643291  0.90947250  0.20972105     0.16800
C1648       C  0.53244564  0.89211848  0.22592236     0.26300
C1649       C  0.52548868  0.86251871  0.22740321    -0.40100
C1650       C  0.53085565  0.85065929  0.21082411     0.33300
C1651       C  0.57159794  0.91691744  0.17788736     0.01900
F1652       F  0.55238982  0.93748251  0.20898937    -0.12400
F1653       F  0.52025456  0.82143827  0.20881570    -0.12900
C1654       C  0.56178120  0.90750391  0.15915881     0.16900
C1655       C  0.58082594  0.92159600  0.14366252     0.26300
C1656       C  0.61013681  0.94551798  0.14658272    -0.40000
C1657       C  0.61889031  0.95669379  0.16520753     0.33200
C1658       C  0.59984449  0.94248620  0.18067926     0.14900
F1659       F  0.53409436  0.88371721  0.15592464    -0.12400
F1660       F  0.64647593  0.98050667  0.16864608    -0.12900
F1661       F  0.57105169  0.91054665  0.12594693    -0.15200
F1662       F  0.60988184  0.95248118  0.19852860    -0.13700
F1663       F  0.55324264  0.85679743  0.18059725    -0.13700
F1664       F  0.52639146  0.90473861  0.24047677    -0.15200
C1665       C  0.49360263  0.70992854  0.23165762     0.14900
C1666       C  0.50310588  0.72957761  0.24711516     0.01900
C1667       C  0.51267322  0.72249891  0.26353373     0.16800
C1668       C  0.51455565  0.69737322  0.26417164     0.26300
C1669       C  0.50803488  0.67884964  0.24789926    -0.40100
C1670       C  0.49524596  0.68461580  0.23221261     0.33300
C1671       C  0.50376953  0.75781728  0.24614343     0.01900
F1672       F  0.51978510  0.73983242  0.27925057    -0.12400
F1673       F  0.48580878  0.66655894  0.21677123    -0.12900
C1674       C  0.47805783  0.75820599  0.24868808     0.16900
C1675       C  0.47907734  0.78506245  0.24843084     0.26300
C1676       C  0.50618089  0.81271379  0.24545539    -0.40000
C1677       C  0.53208777  0.81172031  0.24384173     0.33200
C1678       C  0.53071685  0.78484803  0.24368898     0.14900
F1679       F  0.45191362  0.73247856  0.25215271    -0.12400
F1680       F  0.55906683  0.83705056  0.24167605    -0.12900
F1681       F  0.45363077  0.78357972  0.25242283    -0.15200
F1682       F  0.55598215  0.78525423  0.24108060    -0.13700
F1683       F  0.48338633  0.71564320  0.21573189    -0.13700
F1684       F  0.52122693  0.69079238  0.28123486    -0.15200
C1685       C  0.31937219  0.90808437  0.33533210     0.14900
C1686       C  0.32531581  0.91905145  0.31663836     0.01900
C1687       C  0.33110032  0.94759661  0.31337070     0.16800
C1688       C  0.32979722  0.96434222  0.32827852     0.26300
C1689       C  0.32257219  0.95294582  0.34692172    -0.40100
C1690       C  0.31810007  0.92482528  0.35031611     0.33300
C1691       C  0.32330314  0.90021990  0.30022713     0.01900
F1692       F  0.33730006  0.95901723  0.29551835    -0.12400
F1693       F  0.31135688  0.91290064  0.36802865    -0.12900
C1694       C  0.30232844  0.89299111  0.28603049     0.16900
C1695       C  0.30167439  0.87783237  0.26963378     0.26300
C1696       C  0.32277027  0.86995508  0.26633349    -0.40000
C1697       C  0.34156565  0.87430012  0.28190084     0.33200
C1698       C  0.34210662  0.88967664  0.29838891     0.14900
F1699       F  0.28242595  0.90103170  0.28791408    -0.12400
F1700       F  0.35881311  0.86299348  0.28180356    -0.12900
F1701       F  0.28144568  0.87298191  0.25632379    -0.15200
F1702       F  0.36141069  0.89463686  0.31248802    -0.13700
F1703       F  0.31316969  0.88044222  0.33894003    -0.13700
F1704       F  0.33436660  0.99122850  0.32420729    -0.15200
C1705       C  0.33310669  0.92240628  0.21661469     0.14900
C1706       C  0.32444263  0.90973097  0.19848213     0.01900
C1707       C  0.31936174  0.88145108  0.19545384     0.16800
C1708       C  0.32096577  0.86542951  0.21062514     0.26300
C1709       C  0.32597094  0.87648763  0.22955857    -0.40100
C1710       C  0.33458479  0.90654079  0.23178917     0.33300
C1711       C  0.32039289  0.92623262  0.18309560     0.01900
F1712       F  0.31138543  0.86863433  0.17799632    -0.12400
F1713       F  0.34558213  0.92157865  0.24833926    -0.12900
C1714       C  0.33599902  0.93294594  0.16579188     0.16900
C1715       C  0.33299879  0.94985972  0.15187998     0.26300
C1716       C  0.31450611  0.96063384  0.15507791    -0.40000
C1717       C  0.29885157  0.95370870  0.17242633     0.33200
C1718       C  0.30154563  0.93651326  0.18612341     0.14900
F1719       F  0.35456486  0.92357543  0.16247689    -0.12400
F1720       F  0.28001859  0.96269423  0.17598534    -0.12900
F1721       F  0.34828493  0.95572528  0.13532278    -0.15200
F1722       F  0.28516601  0.92936127  0.20230971    -0.13700
F1723       F  0.34042473  0.95061187  0.21966538    -0.13700
F1724       F  0.31538501  0.83802109  0.20695633    -0.15200
C1725       C  0.19002392  0.72880783  0.23201500     0.14900
C1726       C  0.20822081  0.73925576  0.24824122     0.01900
C1727       C  0.19784731  0.72118075  0.26454831     0.16800
C1728       C  0.17166713  0.69300477  0.26410277     0.26300
C1729       C  0.15218141  0.68301851  0.24824636    -0.40100
C1730       C  0.16159144  0.70301764  0.23263430     0.33300
C1731       C  0.23708808  0.76914114  0.24822290     0.01900
F1732       F  0.21228862  0.73093940  0.28136398    -0.12400
F1733       F  0.14359383  0.69946868  0.21810990    -0.12900
C1734       C  0.23978042  0.79334336  0.23841515     0.16900
C1735       C  0.26700747  0.82034273  0.23678092     0.26300
C1736       C  0.29255991  0.82555705  0.24655185    -0.40000
C1737       C  0.28829976  0.80246290  0.25866681     0.33200
C1738       C  0.26214218  0.77422380  0.25818485     0.14900
F1739       F  0.21568054  0.79159195  0.23089478    -0.12400
F1740       F  0.31036654  0.80657217  0.27021637    -0.12900
F1741       F  0.26696298  0.84170464  0.22658424    -0.15200
F1742       F  0.26200718  0.75177298  0.26708812    -0.13700
F1743       F  0.19946047  0.74363109  0.21525694    -0.13700
F1744       F  0.16500697  0.67569007  0.27970733    -0.15200
C1745       C  0.37306299  0.82403655  0.23712072     0.14900
C1746       C  0.40152351  0.84869549  0.24088515     0.01900
C1747       C  0.40449435  0.87614982  0.24389618     0.16800
C1748       C  0.37959783  0.87821554  0.24537991     0.26300
C1749       C  0.35041566  0.85292345  0.24359766    -0.40100
C1750       C  0.34822326  0.82637455  0.23750434     0.33300
C1751       C  0.42789517  0.84590696  0.24247220     0.01900
F1752       F  0.43175345  0.90129510  0.24552475    -0.12400
F1753       F  0.32251265  0.80261455  0.23108052    -0.12900
C1754       C  0.43463841  0.83131530  0.22864664     0.16900
C1755       C  0.45964722  0.82937059  0.23049330     0.26300
C1756       C  0.47953368  0.84256640  0.24603569    -0.40000
C1757       C  0.47280625  0.85822832  0.25942509     0.33200
C1758       C  0.44707778  0.85866895  0.25801513     0.14900
F1759       F  0.41779716  0.81998560  0.21279422    -0.12400
F1760       F  0.49190346  0.87575229  0.27318542    -0.12900
F1761       F  0.46502458  0.81534253  0.21651263    -0.15200
F1762       F  0.44135797  0.87253355  0.27194519    -0.13700
F1763       F  0.36895496  0.79722115  0.23335896    -0.13700
F1764       F  0.38425306  0.90518378  0.24927739    -0.15200
loop_ 
_geom_bond_atom_site_label_1 
_geom_bond_atom_site_label_2 
_geom_bond_distance 
_geom_bond_site_symmetry_2 
_ccdc_geom_bond_type 
C1         C1696   1.578       .  S
C1         C1709   1.570       .  S
C1         C1736   1.574       .  S
C1         C1749   1.582       .  S
C2         C1636   1.576       .  S
C2         C1649   1.576       .  S
C2         C1676   1.580       .  S
C2         C1756   1.582       .  S
C3         C1569   1.577       .  S
C3         C1596   1.574       .  S
C3         C1609   1.571       .  S
C3         C1669   1.580       .  S
C4         C1516   1.575       .  S
C4         C1529   1.573       .  S
C4         C1556   1.571       .  S
C4         C1616   1.570       .  S
C5         C1449   1.572       .  S
C5         C1469   1.573       .  S
C5         C1489   1.571       .  S
C5         C1549   1.569       .  S
C6         C1416   1.569       .  S
C6         C1429   1.579       .  S
C6         C1496   1.569       .  S
C6         C1729   1.581       .  S
O7           C10   1.264       .  A
O7          Cd12   2.449       .  S
C8           O17   1.268       .  A
C8           O13   1.265       .  A
C8         C1376   1.491       .  S
O9           C15   1.264       .  A
O9          Cd12   2.502       .  S
C10          O18   1.265       .  A
C10        C1356   1.483       .  S
C11          O16   1.269   1_655  A
C11          O14   1.264       .  A
C11        C1336   1.490       .  S
Cd12         O19   2.482       .  S
Cd12         O18   2.472       .  S
Cd12         O17   2.499   1_655  S
Cd12         O13   2.451   1_655  S
Cd12         O16   2.502   1_655  S
Cd12         O14   2.440       .  S
C15          O19   1.264       .  A
C15        C1389   1.492       .  S
O20          C23   1.266       .  A
O20         Cd25   2.477   1_545  S
C21          O30   1.265       .  A
C21          O26   1.264       .  A
C21        C1269   1.492       .  S
O22          C28   1.270       .  A
O22         Cd25   2.501       .  S
C23          O31   1.263       .  A
C23        C1349   1.483       .  S
C24          O29   1.267   1_545  A
C24          O27   1.263       .  A
C24        C1309   1.494       .  S
Cd25         O32   2.435       .  S
Cd25         O31   2.453   1_565  S
Cd25         O30   2.486       .  S
Cd25         O26   2.486       .  S
Cd25         O29   2.524       .  S
Cd25         O27   2.490   1_565  S
C28          O32   1.264       .  A
C28        C1289   1.489       .  S
O33          C36   1.264       .  A
O33         Cd38   2.481       .  S
C34          O43   1.265       .  A
C34          O39   1.270       .  A
C34        C1216   1.484       .  S
O35          C41   1.264       .  A
O35         Cd38   2.478       .  S
C36          O44   1.266       .  A
C36        C1589   1.493       .  S
C37          O42   1.266       .  A
C37          O40   1.266       .  A
C37        C1256   1.485       .  S
Cd38         O45   2.452       .  S
Cd38         O44   2.487       .  S
Cd38         O43   2.430       .  S
Cd38         O39   2.501       .  S
Cd38         O42   2.485       .  S
Cd38         O40   2.481       .  S
C41          O45   1.263       .  A
C41        C1229   1.483       .  S
O46          C49   1.267       .  A
O46         Cd51   2.489       .  S
C47          O56   1.263       .  A
C47          O52   1.265       .  A
C47        C1536   1.493       .  S
O48          C54   1.265       .  A
O48         Cd51   2.481       .  S
C49          O57   1.265       .  A
C49        C1149   1.489       .  S
C50          O55   1.266       .  A
C50          O53   1.267       .  A
C50        C1169   1.489       .  S
Cd51         O58   2.448       .  S
Cd51         O57   2.474       .  S
Cd51         O56   2.473       .  S
Cd51         O52   2.508       .  S
Cd51         O55   2.459       .  S
Cd51         O53   2.498       .  S
C54          O58   1.265       .  A
C54        C1189   1.486       .  S
O59          C62   1.264       .  A
O59         Cd64   2.435       .  S
C60          O69   1.264       .  A
C60          O65   1.263       .  A
C60        C1196   1.479       .  S
O61          C67   1.266       .  A
O61         Cd64   2.485       .  S
C62          O70   1.269       .  A
C62        C1129   1.488       .  S
C63          O68   1.265       .  A
C63          O66   1.265   1_455  A
C63        C1476   1.491       .  S
Cd64         O71   2.486   1_655  S
Cd64         O70   2.509       .  S
Cd64         O69   2.481   1_655  S
Cd64         O65   2.450   1_655  S
Cd64         O68   2.485   1_655  S
Cd64         O66   2.481       .  S
C67          O71   1.265   1_655  A
C67        C1329   1.493       .  S
O72          C75   1.265       .  A
O72         Cd77   2.451       .  S
C73          O82   1.266       .  A
C73          O78   1.266       .  A
C73        C1136   1.491       .  S
O74          C80   1.263       .  A
O74         Cd77   2.467       .  S
C75          O83   1.267       .  A
C75        C1236   1.487       .  S
C76          O81   1.266       .  A
C76          O79   1.264       .  A
C76        C1656   1.490       .  S
Cd77         O84   2.492       .  S
Cd77         O83   2.486       .  S
Cd77         O82   2.490   1_565  S
Cd77         O78   2.466   1_565  S
Cd77         O81   2.495       .  S
Cd77         O79   2.469       .  S
C80          O84   1.266       .  A
C80        C1296   1.482       .  S
O85          C88   1.263       .  A
O85         Cd90   2.439   1_545  S
C86          O95   1.267       .  A
C86          O91   1.264       .  A
C86        C1109   1.481       .  S
O87          C93   1.269   1_545  A
O87         Cd90   2.497   1_545  S
C88          O96   1.269       .  A
C88        C1176   1.487       .  S
C89          O94   1.265       .  A
C89          O92   1.266       .  A
C89        C1716   1.490       .  S
Cd90         O97   2.433       .  S
Cd90         O96   2.506   1_565  S
Cd90         O95   2.488       .  S
Cd90         O91   2.419       .  S
Cd90         O94   2.460       .  S
Cd90         O92   2.498       .  S
C93          O97   1.264       .  A
C93        C1089   1.486       .  S
O98         C101   1.264       .  A
O98        Cd103   2.474       .  S
C99         O108   1.265       .  A
C99         O104   1.266       .  A
C99        C1116   1.481       .  S
O100        C106   1.266   1_655  A
O100       Cd103   2.508       .  S
C101        O109   1.266       .  A
C101       C1249   1.492       .  S
C102        O107   1.266       .  A
C102        O105   1.262   1_655  A
C102       C1069   1.490       .  S
Cd103       O110   2.471   1_655  S
Cd103       O109   2.495       .  S
Cd103       O108   2.446   1_655  S
Cd103       O104   2.470   1_655  S
Cd103       O107   2.513       .  S
Cd103       O105   2.459   1_655  S
C106        O110   1.264       .  A
C106       C1436   1.486       .  S
O111        C114   1.264       .  A
O111       Cd116   2.502       .  S
C112        O121   1.264       .  A
C112        O117   1.266       .  A
C112       C1209   1.492       .  S
O113        C119   1.265       .  A
O113       Cd116   2.489       .  S
C114        O122   1.265       .  A
C114       C1056   1.498       .  S
C115        O120   1.266       .  A
C115        O118   1.269       .  A
C115       C1276   1.494       .  S
Cd116       O123   2.450       .  S
Cd116       O122   2.511       .  S
Cd116       O121   2.480       .  S
Cd116       O117   2.501       .  S
Cd116       O120   2.457       .  S
Cd116       O118   2.512       .  S
C119        O123   1.263       .  A
C119       C1029   1.485       .  S
O124        C127   1.271       .  A
O124       Cd129   2.529       .  S
C125        O134   1.264       .  A
C125        O130   1.265       .  A
C125       C1016   1.493       .  S
O126        C132   1.263       .  A
O126       Cd129   2.409       .  S
C127        O135   1.261       .  A
C127       C1156   1.491       .  S
C128        O133   1.264       .  A
C128        O131   1.269       .  A
C128       C1369   1.486       .  S
Cd129       O136   2.481       .  S
Cd129       O135   2.421       .  S
Cd129       O134   2.484       .  S
Cd129       O130   2.497       .  S
Cd129       O133   2.444       .  S
Cd129       O131   2.507       .  S
C132        O136   1.267       .  A
C132        C989   1.478       .  S
O137        C140   1.263       .  A
O137       Cd142   2.466   1_545  S
C138        O147   1.267       .  A
C138        O143   1.262       .  A
C138        C949   1.477       .  S
O139        C145   1.267       .  A
O139       Cd142   2.483   1_545  S
C140        O148   1.263       .  A
C140        C996   1.481       .  S
C141        O146   1.267   1_545  A
C141        O144   1.265       .  A
C141       C1096   1.487       .  S
Cd142       O149   2.466       .  S
Cd142       O148   2.458   1_565  S
Cd142       O147   2.488       .  S
Cd142       O143   2.432       .  S
Cd142       O146   2.485       .  S
Cd142       O144   2.447   1_565  S
C145        O149   1.265   1_545  A
C145        C969   1.488       .  S
O150        C153   1.264       .  A
O150       Cd155   2.438   1_455  S
C151        O160   1.265       .  A
C151        O156   1.266       .  A
C151       C1036   1.484       .  S
O152        C158   1.264       .  A
O152       Cd155   2.485       .  S
C153        O161   1.267       .  A
C153        C956   1.485       .  S
C154        O159   1.267       .  A
C154        O157   1.262       .  A
C154       C1076   1.488       .  S
Cd155       O162   2.496       .  S
Cd155       O161   2.490   1_655  S
Cd155       O160   2.433       .  S
Cd155       O156   2.488       .  S
Cd155       O159   2.510       .  S
Cd155       O157   2.452       .  S
C158        O162   1.265       .  A
C158        C929   1.494       .  S
C163        C869   1.575       .  S
C163        C889   1.572       .  S
C163        C909   1.577       .  S
C163       C1396   1.568       .  S
C164        C829   1.573       .  S
C164        C849   1.573       .  S
C164        C916   1.574       .  S
C164        C936   1.574       .  S
C165        C789   1.568       .  S
C165        C816   1.575       .  S
C165        C896   1.572       .  S
C165       C1316   1.579       .  S
C166        C756   1.578       .  S
C166        C769   1.573       .  S
C166        C856   1.573       .  S
C166       C1049   1.578       .  S
C167        C709   1.572       .  S
C167        C729   1.574       .  S
C167        C809   1.574       .  S
C167        C976   1.571       .  S
C168        C696   1.572       .  S
C168        C736   1.576       .  S
C168        C776   1.569       .  S
C168       C1009   1.573       .  S
O169        C172   1.269       .  A
O169       Cd174   2.539       .  S
C170        O179   1.262       .  A
C170        O175   1.267       .  A
C170        C749   1.497       .  S
O171        C177   1.267       .  A
O171       Cd174   2.449       .  S
C172        O180   1.261       .  A
C172        C636   1.488       .  S
C173        O178   1.263       .  A
C173        O176   1.266       .  A
C173        C669   1.494       .  S
Cd174       O181   2.453       .  S
Cd174       O180   2.444       .  S
Cd174       O179   2.479       .  S
Cd174       O175   2.538       .  S
Cd174       O178   2.478       .  S
Cd174       O176   2.515       .  S
C177        O181   1.266       .  A
C177        C649   1.482       .  S
O182        C185   1.263       .  A
O182       Cd187   2.450   1_545  S
C183        O192   1.266       .  A
C183        O188   1.262       .  A
C183        C676   1.489       .  S
O184        C190   1.265       .  A
O184       Cd187   2.494   1_545  S
C185        O193   1.266       .  A
C185        C609   1.482       .  S
C186        O191   1.269       .  A
C186        O189   1.263       .  A
C186        C596   1.487       .  S
Cd187       O194   2.496       .  S
Cd187       O193   2.483   1_565  S
Cd187       O192   2.511       .  S
Cd187       O188   2.463       .  S
Cd187       O191   2.508       .  S
Cd187       O189   2.435       .  S
C190        O194   1.266   1_545  A
C190        C796   1.495       .  S
O195        C198   1.267       .  A
O195       Cd200   2.462       .  S
C196        O205   1.268       .  A
C196        O201   1.264       .  A
C196        C569   1.487       .  S
O197        C203   1.267   1_455  A
O197       Cd200   2.523   1_455  S
C198        O206   1.265       .  A
C198        C616   1.483       .  S
C199        O204   1.268       .  A
C199        O202   1.262       .  A
C199        C876   1.490       .  S
Cd200       O207   2.470       .  S
Cd200       O206   2.447       .  S
Cd200       O205   2.500   1_655  S
Cd200       O201   2.450   1_655  S
Cd200       O204   2.519       .  S
Cd200       O202   2.442       .  S
C203        O207   1.263       .  A
C203        C556   1.495       .  S
O208        C211   1.268       .  A
O208       Cd213   2.491       .  S
C209        O218   1.262       .  A
C209        O214   1.270       .  A
C209        C516   1.494       .  S
O210        C216   1.264       .  A
O210       Cd213   2.414       .  S
C211        O219   1.262       .  A
C211        C689   1.488       .  S
C212        O217   1.265       .  A
C212        O215   1.267       .  A
C212        C576   1.489       .  S
Cd213       O220   2.485       .  S
Cd213       O219   2.473       .  S
Cd213       O218   2.451       .  S
Cd213       O214   2.538       .  S
Cd213       O217   2.453       .  S
Cd213       O215   2.499       .  S
C216        O220   1.269       .  A
C216        C536   1.480       .  S
O221        C224   1.265       .  A
O221       Cd226   2.463       .  S
C222        O231   1.266       .  A
C222        O227   1.265       .  A
C222        C529   1.484       .  S
O223        C229   1.266       .  A
O223       Cd226   2.477   1_545  S
C224        O232   1.264       .  A
C224        C489   1.478       .  S
C225        O230   1.266       .  A
C225        O228   1.263   1_565  A
C225        C469   1.491   1_565  S
Cd226       O233   2.476       .  S
Cd226       O232   2.469       .  S
Cd226       O231   2.477   1_565  S
Cd226       O227   2.460   1_565  S
Cd226       O230   2.497       .  S
Cd226       O228   2.462   1_565  S
C229        O233   1.264   1_545  A
C229        C716   1.489       .  S
O234        C237   1.264       .  A
O234       Cd239   2.430   1_455  S
C235        O244   1.267       .  A
C235        O240   1.265       .  A
C235        C656   1.478       .  S
O236        C242   1.262       .  A
O236       Cd239   2.431       .  S
C237        O245   1.267       .  A
C237        C496   1.480       .  S
C238        O243   1.266       .  A
C238        O241   1.263       .  A
C238        C836   1.487       .  S
Cd239       O246   2.495       .  S
Cd239       O245   2.473   1_655  S
Cd239       O244   2.461       .  S
Cd239       O240   2.429       .  S
Cd239       O243   2.489       .  S
Cd239       O241   2.449       .  S
C242        O246   1.269       .  A
C242        C456   1.481       .  S
O247        C250   1.264       .  A
O247       Cd252   2.448       .  S
C248        O257   1.264       .  A
C248        O253   1.265       .  A
C248        C409   1.484       .  S
O249        C255   1.268       .  A
O249       Cd252   2.497       .  S
C250        O258   1.268       .  A
C250        C429   1.488       .  S
C251        O256   1.264       .  A
C251        O254   1.265   1_455  A
C251       C1409   1.489       .  S
Cd252       O259   2.450   1_655  S
Cd252       O258   2.514       .  S
Cd252       O257   2.456   1_655  S
Cd252       O253   2.474   1_655  S
Cd252       O256   2.494   1_655  S
Cd252       O254   2.474       .  S
C255        O259   1.263   1_655  A
C255        C449   1.488       .  S
O260        C263   1.267       .  A
O260       Cd265   2.501       .  S
C261        O270   1.265       .  A
C261        O266   1.266       .  A
C261       C1576   1.492       .  S
O262        C268   1.263       .  A
O262       Cd265   2.407       .  S
C263        O271   1.262       .  A
C263        C629   1.486       .  S
C264        O269   1.263       .  A
C264        O267   1.268       .  A
C264        C436   1.491       .  S
Cd265       O272   2.498       .  S
Cd265       O271   2.447       .  S
Cd265       O270   2.484       .  S
Cd265       O266   2.475       .  S
Cd265       O269   2.452       .  S
Cd265       O267   2.518       .  S
C268        O272   1.267       .  A
C268        C389   1.482       .  S
O273        C276   1.264       .  A
O273       Cd278   2.471   1_545  S
C274        O283   1.265       .  A
C274        O279   1.267       .  A
C274        C416   1.483       .  S
O275        C281   1.260       .  A
O275       Cd278   2.497       .  S
C276        O284   1.268       .  A
C276        C376   1.498       .  S
C277        O282   1.262       .  A
C277        O280   1.268   1_565  A
C277        C476   1.492       .  S
Cd278       O285   2.526       .  S
Cd278       O284   2.534   1_565  S
Cd278       O283   2.448       .  S
Cd278       O279   2.492       .  S
Cd278       O282   2.456       .  S
Cd278       O280   2.534   1_565  S
C281        O285   1.265       .  A
C281       C1689   1.498       .  S
O286        C289   1.268       .  A
O286       Cd291   2.543       .  S
C287        O296   1.263       .  A
C287        O292   1.269       .  A
C287        C509   1.495       .  S
O288        C294   1.268       .  A
O288       Cd291   2.499       .  S
C289        O297   1.262       .  A
C289       C1509   1.496       .  S
C290        O295   1.264       .  A
C290        O293   1.267       .  A
C290        C369   1.499       .  S
Cd291       O298   2.434       .  S
Cd291       O297   2.474       .  S
Cd291       O296   2.460       .  S
Cd291       O292   2.534       .  S
Cd291       O295   2.489       .  S
Cd291       O293   2.532       .  S
C294        O298   1.264       .  A
C294        C356   1.486       .  S
O299        C302   1.265   1_655  A
O299       Cd304   2.470       .  S
C300        O309   1.265       .  A
C300        O305   1.265       .  A
C300        C329   1.489       .  S
O301        C307   1.268       .  A
O301       Cd304   2.494       .  S
C302        O310   1.264       .  A
C302        C349   1.483       .  S
C303        O308   1.264   1_655  A
C303        O306   1.264       .  A
C303       C1456   1.491   1_655  S
Cd304       O311   2.466   1_655  S
Cd304       O310   2.458   1_655  S
Cd304       O309   2.491       .  S
Cd304       O305   2.481       .  S
Cd304       O308   2.476   1_655  S
Cd304       O306   2.492       .  S
C307        O311   1.264   1_655  A
C307        C549   1.491       .  S
O312        C315   1.265       .  A
O312       Cd317   2.433       .  S
C313        O322   1.268       .  A
C313        O318   1.265       .  A
C313        C336   1.493       .  S
O314        C320   1.262       .  A
O314       Cd317   2.508       .  S
C315        O323   1.267       .  A
C315        C396   1.481       .  S
C316        O321   1.266       .  A
C316        O319   1.262       .  A
C316        C589   1.493       .  S
Cd317       O324   2.518       .  S
Cd317       O323   2.459       .  S
Cd317       O322   2.495   1_565  S
Cd317       O318   2.475   1_565  S
Cd317       O321   2.518       .  S
Cd317       O319   2.465       .  S
C320        O324   1.266       .  A
C320       C1629   1.494       .  S
C325        C326   1.403       .  A
C325        C330   1.402       .  A
C325        F343   1.358       .  S
C326        C331   1.483       .  S
C326        C327   1.404       .  A
C327        C328   1.402       .  A
C327        F332   1.358       .  S
C328        C329   1.411       .  A
C328        F344   1.358       .  S
C329        C330   1.411       .  A
C330        F333   1.357       .  S
C331        C334   1.404       .  A
C331        C338   1.403       .  A
C334        C335   1.404       .  A
C334        F339   1.357       .  S
C335        C336   1.412       .  A
C335        F341   1.357       .  S
C336        C337   1.413       .  A
C337        C338   1.400       .  A
C337        F340   1.358       .  S
C338        F342   1.358       .  S
C345        C346   1.404       .  A
C345        C350   1.398       .  A
C345        F363   1.358       .  S
C346        C351   1.480       .  S
C346        C347   1.404       .  A
C347        C348   1.399       .  A
C347        F352   1.358       .  S
C348        C349   1.410       .  A
C348        F364   1.358       .  S
C349        C350   1.410       .  A
C350        F353   1.358       .  S
C351        C354   1.403       .  A
C351        C358   1.405       .  A
C354        C355   1.396       .  A
C354        F359   1.358       .  S
C355        C356   1.411       .  A
C355        F361   1.358       .  S
C356        C357   1.411       .  A
C357        C358   1.403       .  A
C357        F360   1.357       .  S
C358        F362   1.358       .  S
C365        C366   1.407       .  A
C365        C370   1.409       .  A
C365        F383   1.357       .  S
C366        C371   1.492       .  S
C366        C367   1.404       .  A
C367        C368   1.402       .  A
C367        F372   1.358       .  S
C368        C369   1.412       .  A
C368        F384   1.357       .  S
C369        C370   1.413       .  A
C370        F373   1.358       .  S
C371        C374   1.407       .  A
C371        C378   1.404       .  A
C374        C375   1.409       .  A
C374        F379   1.358       .  S
C375        C376   1.413       .  A
C375        F381   1.358       .  S
C376        C377   1.412       .  A
C377        C378   1.401       .  A
C377        F380   1.358       .  S
C378        F382   1.358       .  S
C385        C386   1.402       .  A
C385        C390   1.391       .  A
C385        F403   1.358       .  S
C386        C391   1.477       .  S
C386        C387   1.405       .  A
C387        C388   1.402       .  A
C387        F392   1.358       .  S
C388        C389   1.411       .  A
C388        F404   1.358       .  S
C389        C390   1.410       .  A
C390        F393   1.358       .  S
C391        C394   1.403       .  A
C391        C398   1.405       .  A
C394        C395   1.395       .  A
C394        F399   1.358       .  S
C395        C396   1.410       .  A
C395        F401   1.358       .  S
C396        C397   1.410       .  A
C397        C398   1.398       .  A
C397        F400   1.358       .  S
C398        F402   1.358       .  S
C405        C406   1.406       .  A
C405        C410   1.401       .  A
C405        F423   1.358       .  S
C406        C411   1.484       .  S
C406        C407   1.405       .  A
C407        C408   1.397       .  A
C407        F412   1.358       .  S
C408        C409   1.409       .  A
C408        F424   1.358       .  S
C409        C410   1.410       .  A
C410        F413   1.358       .  S
C411        C414   1.406       .  A
C411        C418   1.405       .  A
C414        C415   1.404       .  A
C414        F419   1.358       .  S
C415        C416   1.410       .  A
C415        F421   1.358       .  S
C416        C417   1.408       .  A
C417        C418   1.396       .  A
C417        F420   1.358       .  S
C418        F422   1.358       .  S
C425        C426   1.408       .  A
C425        C430   1.406       .  A
C425        F443   1.358       .  S
C426        C431   1.490       .  S
C426        C427   1.406       .  A
C427        C428   1.397       .  A
C427        F432   1.358       .  S
C428        C429   1.409       .  A
C428        F444   1.358       .  S
C429        C430   1.410       .  A
C430        F433   1.358       .  S
C431        C434   1.407       .  A
C431        C438   1.406       .  A
C434        C435   1.405       .  A
C434        F439   1.358       .  S
C435        C436   1.410       .  A
C435        F441   1.357       .  S
C436        C437   1.411       .  A
C437        C438   1.399       .  A
C437        F440   1.358       .  S
C438        F442   1.358       .  S
C445        C446   1.403   1_455  A
C445        C450   1.398       .  A
C445        F463   1.358       .  S
C446        C451   1.483       .  S
C446        C447   1.406       .  A
C447        C448   1.401       .  A
C447        F452   1.358       .  S
C448        C449   1.410       .  A
C448        F464   1.357       .  S
C449        C450   1.412   1_655  A
C450        F453   1.358       .  S
C451        C454   1.404       .  A
C451        C458   1.407       .  A
C454        C455   1.396       .  A
C454        F459   1.358       .  S
C455        C456   1.409       .  A
C455        F461   1.358       .  S
C456        C457   1.407       .  A
C457        C458   1.402       .  A
C457        F460   1.358   1_655  S
C458        F462   1.358   1_655  S
C465        C466   1.405       .  A
C465        C470   1.399       .  A
C465        F483   1.358       .  S
C466        C471   1.489   1_545  S
C466        C467   1.407   1_545  A
C467        C468   1.404       .  A
C467        F472   1.357       .  S
C468        C469   1.411   1_565  A
C468        F484   1.358       .  S
C469        C470   1.411       .  A
C470        F473   1.358       .  S
C471        C474   1.407   1_565  A
C471        C478   1.405       .  A
C474        C475   1.404       .  A
C474        F479   1.358       .  S
C475        C476   1.409   1_545  A
C475        F481   1.357       .  S
C476        C477   1.412       .  A
C477        C478   1.401       .  A
C477        F480   1.358       .  S
C478        F482   1.358       .  S
C485        C486   1.404       .  A
C485        C490   1.397       .  A
C485        F503   1.358       .  S
C486        C491   1.476       .  S
C486        C487   1.403       .  A
C487        C488   1.399       .  A
C487        F492   1.358       .  S
C488        C489   1.409       .  A
C488        F504   1.358       .  S
C489        C490   1.407       .  A
C490        F493   1.358       .  S
C491        C494   1.403       .  A
C491        C498   1.404       .  A
C494        C495   1.394       .  A
C494        F499   1.358       .  S
C495        C496   1.409       .  A
C495        F501   1.358       .  S
C496        C497   1.410       .  A
C497        C498   1.401       .  A
C497        F500   1.358       .  S
C498        F502   1.358       .  S
C505        C506   1.408       .  A
C505        C510   1.406       .  A
C505        F523   1.358       .  S
C506        C511   1.495       .  S
C506        C507   1.406       .  A
C507        C508   1.403       .  A
C507        F512   1.358       .  S
C508        C509   1.412       .  A
C508        F524   1.358       .  S
C509        C510   1.410       .  A
C510        F513   1.357       .  S
C511        C514   1.409       .  A
C511        C518   1.406       .  A
C514        C515   1.408       .  A
C514        F519   1.357       .  S
C515        C516   1.410       .  A
C515        F521   1.357       .  S
C516        C517   1.411       .  A
C517        C518   1.400       .  A
C517        F520   1.358       .  S
C518        F522   1.358       .  S
C525        C526   1.403       .  A
C525        C530   1.400       .  A
C525        F543   1.358       .  S
C526        C531   1.477       .  S
C526        C527   1.402       .  A
C527        C528   1.398       .  A
C527        F532   1.358       .  S
C528        C529   1.410       .  A
C528        F544   1.358       .  S
C529        C530   1.411       .  A
C530        F533   1.358       .  S
C531        C534   1.405       .  A
C531        C538   1.402       .  A
C534        C535   1.402       .  A
C534        F539   1.358       .  S
C535        C536   1.409       .  A
C535        F541   1.358       .  S
C536        C537   1.409       .  A
C537        C538   1.394       .  A
C537        F540   1.358       .  S
C538        F542   1.358       .  S
C545        C546   1.407       .  A
C545        C550   1.403       .  A
C545        F563   1.358       .  S
C546        C551   1.490       .  S
C546        C547   1.406   1_655  A
C547        C548   1.401       .  A
C547        F552   1.358       .  S
C548        C549   1.412   1_455  A
C548        F564   1.358       .  S
C549        C550   1.410       .  A
C550        F553   1.357       .  S
C551        C554   1.405       .  A
C551        C558   1.407   1_655  A
C554        C555   1.400       .  A
C554        F559   1.358       .  S
C555        C556   1.412       .  A
C555        F561   1.358       .  S
C556        C557   1.412   1_655  A
C557        C558   1.405       .  A
C557        F560   1.357       .  S
C558        F562   1.358       .  S
C565        C566   1.407       .  A
C565        C570   1.403       .  A
C565        F583   1.358       .  S
C566        C571   1.489       .  S
C566        C567   1.406       .  A
C567        C568   1.398       .  A
C567        F572   1.358       .  S
C568        C569   1.410       .  A
C568        F584   1.358       .  S
C569        C570   1.409       .  A
C570        F573   1.357       .  S
C571        C574   1.407       .  A
C571        C578   1.406       .  A
C574        C575   1.404       .  A
C574        F579   1.358       .  S
C575        C576   1.411       .  A
C575        F581   1.358       .  S
C576        C577   1.410       .  A
C577        C578   1.397       .  A
C577        F580   1.358       .  S
C578        F582   1.358       .  S
C585        C586   1.404       .  A
C585        C590   1.400       .  A
C585        F603   1.358       .  S
C586        C591   1.487       .  S
C586        C587   1.406       .  A
C587        C588   1.404       .  A
C587        F592   1.358   1_565  S
C588        C589   1.412       .  A
C588        F604   1.357   1_565  S
C589        C590   1.412       .  A
C590        F593   1.358       .  S
C591        C594   1.405       .  A
C591        C598   1.407       .  A
C594        C595   1.398       .  A
C594        F599   1.358   1_565  S
C595        C596   1.410       .  A
C595        F601   1.358   1_565  S
C596        C597   1.409       .  A
C597        C598   1.404       .  A
C597        F600   1.357       .  S
C598        F602   1.357       .  S
C605        C606   1.402       .  A
C605        C610   1.398       .  A
C605        F623   1.358       .  S
C606        C611   1.474       .  S
C606        C607   1.402       .  A
C607        C608   1.399       .  A
C607        F612   1.358       .  S
C608        C609   1.409       .  A
C608        F624   1.357       .  S
C609        C610   1.411       .  A
C610        F613   1.358       .  S
C611        C614   1.402       .  A
C611        C618   1.401       .  A
C614        C615   1.396       .  A
C614        F619   1.358       .  S
C615        C616   1.411       .  A
C615        F621   1.358       .  S
C616        C617   1.411       .  A
C617        C618   1.399       .  A
C617        F620   1.358       .  S
C618        F622   1.357       .  S
C625        C626   1.404       .  A
C625        C630   1.399       .  A
C625        F643   1.358       .  S
C626        C631   1.482       .  S
C626        C627   1.404       .  A
C627        C628   1.401       .  A
C627        F632   1.357       .  S
C628        C629   1.409       .  A
C628        F644   1.357       .  S
C629        C630   1.412       .  A
C630        F633   1.358       .  S
C631        C634   1.405       .  A
C631        C638   1.403       .  A
C634        C635   1.406       .  A
C634        F639   1.357       .  S
C635        C636   1.410       .  A
C635        F641   1.357       .  S
C636        C637   1.411       .  A
C637        C638   1.397       .  A
C637        F640   1.358       .  S
C638        F642   1.359       .  S
C645        C646   1.402       .  A
C645        C650   1.395       .  A
C645        F663   1.358       .  S
C646        C651   1.475       .  S
C646        C647   1.404       .  A
C647        C648   1.399       .  A
C647        F652   1.358       .  S
C648        C649   1.411       .  A
C648        F664   1.358       .  S
C649        C650   1.410       .  A
C650        F653   1.357       .  S
C651        C654   1.402       .  A
C651        C658   1.405       .  A
C654        C655   1.394       .  A
C654        F659   1.358       .  S
C655        C656   1.409       .  A
C655        F661   1.358       .  S
C656        C657   1.409       .  A
C657        C658   1.399       .  A
C657        F660   1.358       .  S
C658        F662   1.358       .  S
C665        C666   1.407       .  A
C665        C670   1.405       .  A
C665        F683   1.358       .  S
C666        C671   1.491       .  S
C666        C667   1.406       .  A
C667        C668   1.399       .  A
C667        F672   1.358       .  S
C668        C669   1.411       .  A
C668        F684   1.358       .  S
C669        C670   1.412       .  A
C670        F673   1.357       .  S
C671        C674   1.408       .  A
C671        C678   1.406       .  A
C674        C675   1.406       .  A
C674        F679   1.357       .  S
C675        C676   1.410       .  A
C675        F681   1.358       .  S
C676        C677   1.409       .  A
C677        C678   1.397       .  A
C677        F680   1.358       .  S
C678        F682   1.358       .  S
C685        C686   1.406       .  A
C685        C690   1.400       .  A
C685        F703   1.358       .  S
C686        C691   1.490       .  S
C686        C687   1.407       .  A
C687        C688   1.403       .  A
C687        F692   1.358       .  S
C688        C689   1.411       .  A
C688        F704   1.358       .  S
C689        C690   1.408       .  A
C690        F693   1.357       .  S
C691        C694   1.401       .  A
C691        C698   1.402       .  A
C694        C695   1.400       .  A
C694        F699   1.358       .  S
C695        C696   1.427       .  A
C695        F701   1.355       .  S
C696        C697   1.423       .  A
C697        C698   1.400       .  A
C697        F700   1.357       .  S
C698        F702   1.358       .  S
C705        C706   1.401       .  A
C705        C710   1.400       .  A
C705        F723   1.358       .  S
C706        C711   1.485       .  S
C706        C707   1.399       .  A
C707        C708   1.401       .  A
C707        F712   1.358       .  S
C708        C709   1.425       .  A
C708        F724   1.357       .  S
C709        C710   1.425       .  A
C710        F713   1.355       .  S
C711        C714   1.405       .  A
C711        C718   1.404       .  A
C714        C715   1.400       .  A
C714        F719   1.358       .  S
C715        C716   1.410       .  A
C715        F721   1.358       .  S
C716        C717   1.412       .  A
C717        C718   1.401       .  A
C717        F720   1.358   1_545  S
C718        F722   1.358       .  S
C725        C726   1.406       .  A
C725        C730   1.399       .  A
C725        F743   1.357       .  S
C726        C731   1.505       .  S
C726        C727   1.410       .  A
C727        C728   1.407       .  A
C727        F732   1.358       .  S
C728        C729   1.419       .  A
C728        F744   1.357       .  S
C729        C730   1.424       .  A
C730        F733   1.357       .  S
C731        C734   1.407       .  A
C731        C738   1.406       .  A
C734        C735   1.404       .  A
C734        F739   1.358       .  S
C735        C736   1.422       .  A
C735        F741   1.356       .  S
C736        C737   1.425       .  A
C737        C738   1.403       .  A
C737        F740   1.355       .  S
C738        F742   1.358       .  S
C745        C746   1.412       .  A
C745        C750   1.407       .  A
C745        F763   1.358       .  S
C746        C751   1.504       .  S
C746        C747   1.409       .  A
C747        C748   1.403       .  A
C747        F752   1.358       .  S
C748        C749   1.412       .  A
C748        F764   1.358       .  S
C749        C750   1.409       .  A
C750        F753   1.357       .  S
C751        C754   1.406       .  A
C751        C758   1.405       .  A
C754        C755   1.405       .  A
C754        F759   1.358       .  S
C755        C756   1.423       .  A
C755        F761   1.356       .  S
C756        C757   1.426       .  A
C757        C758   1.403       .  A
C757        F760   1.355       .  S
C758        F762   1.358       .  S
C765        C766   1.403       .  A
C765        C770   1.400       .  A
C765        F783   1.358       .  S
C766        C771   1.492       .  S
C766        C767   1.401       .  A
C767        C768   1.403       .  A
C767        F772   1.358       .  S
C768        C769   1.428       .  A
C768        F784   1.356       .  S
C769        C770   1.421       .  A
C770        F773   1.357       .  S
C771        C774   1.404       .  A
C771        C778   1.401       .  A
C774        C775   1.404       .  A
C774        F779   1.358       .  S
C775        C776   1.422       .  A
C775        F781   1.357       .  S
C776        C777   1.425       .  A
C777        C778   1.398       .  A
C777        F780   1.356       .  S
C778        F782   1.358       .  S
C785        C786   1.404       .  A
C785        C790   1.401       .  A
C785        F803   1.358       .  S
C786        C791   1.495       .  S
C786        C787   1.406       .  A
C787        C788   1.403       .  A
C787        F792   1.358       .  S
C788        C789   1.421       .  A
C788        F804   1.356       .  S
C789        C790   1.422       .  A
C790        F793   1.357       .  S
C791        C794   1.407       .  A
C791        C798   1.409       .  A
C794        C795   1.404       .  A
C794        F799   1.358       .  S
C795        C796   1.412       .  A
C795        F801   1.357       .  S
C796        C797   1.410       .  A
C797        C798   1.403       .  A
C797        F800   1.358   1_545  S
C798        F802   1.358       .  S
C805        C806   1.402       .  A
C805        C810   1.403       .  A
C805        F823   1.357       .  S
C806        C811   1.492       .  S
C806        C807   1.401       .  A
C807        C808   1.402       .  A
C807        F812   1.358       .  S
C808        C809   1.429       .  A
C808        F824   1.356       .  S
C809        C810   1.421       .  A
C810        F813   1.356       .  S
C811        C814   1.401       .  A
C811        C818   1.401       .  A
C814        C815   1.403       .  A
C814        F819   1.358       .  S
C815        C816   1.425       .  A
C815        F821   1.353       .  S
C816        C817   1.426       .  A
C817        C818   1.403       .  A
C817        F820   1.356       .  S
C818        F822   1.358       .  S
C825        C826   1.395       .  A
C825        C830   1.400       .  A
C825        F843   1.358       .  S
C826        C831   1.479       .  S
C826        C827   1.398       .  A
C827        C828   1.400       .  A
C827        F832   1.359       .  S
C828        C829   1.428       .  A
C828        F844   1.355       .  S
C829        C830   1.426       .  A
C830        F833   1.356       .  S
C831        C834   1.403       .  A
C831        C838   1.402       .  A
C834        C835   1.402       .  A
C834        F839   1.357       .  S
C835        C836   1.411       .  A
C835        F841   1.358       .  S
C836        C837   1.412       .  A
C837        C838   1.398       .  A
C837        F840   1.358       .  S
C838        F842   1.358       .  S
C845        C846   1.402       .  A
C845        C850   1.404       .  A
C845        F863   1.358       .  S
C846        C851   1.494       .  S
C846        C847   1.403       .  A
C847        C848   1.405       .  A
C847        F852   1.358       .  S
C848        C849   1.421       .  A
C848        F864   1.356       .  S
C849        C850   1.426       .  A
C850        F853   1.356       .  S
C851        C854   1.403       .  A
C851        C858   1.401       .  A
C854        C855   1.405       .  A
C854        F859   1.358       .  S
C855        C856   1.426       .  A
C855        F861   1.356       .  S
C856        C857   1.424       .  A
C857        C858   1.404       .  A
C857        F860   1.357       .  S
C858        F862   1.358       .  S
C865        C866   1.407       .  A
C865        C870   1.406       .  A
C865        F883   1.357       .  S
C866        C871   1.496       .  S
C866        C867   1.402       .  A
C867        C868   1.398       .  A
C867        F872   1.359       .  S
C868        C869   1.428       .  A
C868        F884   1.357       .  S
C869        C870   1.419       .  A
C870        F873   1.357       .  S
C871        C874   1.409       .  A
C871        C878   1.408       .  A
C874        C875   1.406       .  A
C874        F879   1.357       .  S
C875        C876   1.409       .  A
C875        F881   1.357       .  S
C876        C877   1.411       .  A
C877        C878   1.398       .  A
C877        F880   1.358       .  S
C878        F882   1.358       .  S
C885        C886   1.404       .  A
C885        C890   1.398       .  A
C885        F903   1.358       .  S
C886        C891   1.495       .  S
C886        C887   1.404       .  A
C887        C888   1.402       .  A
C887        F892   1.358       .  S
C888        C889   1.424       .  A
C888        F904   1.358       .  S
C889        C890   1.423       .  A
C890        F893   1.354       .  S
C891        C894   1.403       .  A
C891        C898   1.404       .  A
C894        C895   1.397       .  A
C894        F899   1.358       .  S
C895        C896   1.422       .  A
C895        F901   1.355       .  S
C896        C897   1.427       .  A
C897        C898   1.404       .  A
C897        F900   1.355       .  S
C898        F902   1.358       .  S
C905        C906   1.401       .  A
C905        C910   1.405       .  A
C905        F923   1.358       .  S
C906        C911   1.489       .  S
C906        C907   1.397       .  A
C907        C908   1.404       .  A
C907        F912   1.358       .  S
C908        C909   1.432       .  A
C908        F924   1.355       .  S
C909        C910   1.423       .  A
C910        F913   1.356       .  S
C911        C914   1.400       .  A
C911        C918   1.401       .  A
C914        C915   1.404       .  A
C914        F919   1.358       .  S
C915        C916   1.426       .  A
C915        F921   1.356       .  S
C916        C917   1.422       .  A
C917        C918   1.405       .  A
C917        F920   1.355       .  S
C918        F922   1.357       .  S
C925        C926   1.406       .  A
C925        C930   1.402       .  A
C925        F943   1.358       .  S
C926        C931   1.490       .  S
C926        C927   1.405       .  A
C927        C928   1.403       .  A
C927        F932   1.358       .  S
C928        C929   1.412       .  A
C928        F944   1.357       .  S
C929        C930   1.412       .  A
C930        F933   1.358       .  S
C931        C934   1.402       .  A
C931        C938   1.400       .  A
C934        C935   1.405       .  A
C934        F939   1.358       .  S
C935        C936   1.427       .  A
C935        F941   1.355       .  S
C936        C937   1.425       .  A
C937        C938   1.398       .  A
C937        F940   1.355       .  S
C938        F942   1.358       .  S
C945        C946   1.405       .  A
C945        C950   1.401       .  A
C945        F963   1.357       .  S
C946        C951   1.479       .  S
C946        C947   1.404       .  A
C947        C948   1.395       .  A
C947        F952   1.358       .  S
C948        C949   1.408       .  A
C948        F964   1.358       .  S
C949        C950   1.407       .  A
C950        F953   1.357       .  S
C951        C954   1.404       .  A
C951        C958   1.403       .  A
C954        C955   1.402       .  A
C954        F959   1.358       .  S
C955        C956   1.411       .  A
C955        F961   1.357       .  S
C956        C957   1.411       .  A
C957        C958   1.395       .  A
C957        F960   1.358       .  S
C958        F962   1.358       .  S
C965        C966   1.404       .  A
C965        C970   1.400       .  A
C965        F983   1.358       .  S
C966        C971   1.484       .  S
C966        C967   1.404       .  A
C967        C968   1.403       .  A
C967        F972   1.358       .  S
C968        C969   1.411       .  A
C968        F984   1.358       .  S
C969        C970   1.410       .  A
C970        F973   1.358   1_545  S
C971        C974   1.398       .  A
C971        C978   1.401       .  A
C974        C975   1.396       .  A
C974        F979   1.358       .  S
C975        C976   1.424       .  A
C975        F981   1.356       .  S
C976        C977   1.427       .  A
C977        C978   1.405       .  A
C977        F980   1.355       .  S
C978        F982   1.358       .  S
C985        C986   1.401       .  A
C985        C990   1.392       .  A
C985       F1003   1.358       .  S
C986        C991   1.472       .  S
C986        C987   1.403       .  A
C987        C988   1.400       .  A
C987        F992   1.357       .  S
C988        C989   1.409       .  A
C988       F1004   1.358       .  S
C989        C990   1.410       .  A
C990        F993   1.358       .  S
C991        C994   1.403       .  A
C991        C998   1.402       .  A
C994        C995   1.398       .  A
C994        F999   1.358       .  S
C995        C996   1.410       .  A
C995       F1001   1.358       .  S
C996        C997   1.410       .  A
C997        C998   1.396       .  A
C997       F1000   1.358       .  S
C998       F1002   1.358       .  S
C1005      C1006   1.397       .  A
C1005      C1010   1.398       .  A
C1005      F1023   1.358       .  S
C1006      C1011   1.487       .  S
C1006      C1007   1.402       .  A
C1007      C1008   1.406       .  A
C1007      F1012   1.358       .  S
C1008      C1009   1.426       .  A
C1008      F1024   1.355       .  S
C1009      C1010   1.426       .  A
C1010      F1013   1.356       .  S
C1011      C1014   1.405       .  A
C1011      C1018   1.403       .  A
C1014      C1015   1.403       .  A
C1014      F1019   1.358       .  S
C1015      C1016   1.412       .  A
C1015      F1021   1.358       .  S
C1016      C1017   1.412       .  A
C1017      C1018   1.403       .  A
C1017      F1020   1.357       .  S
C1018      F1022   1.358       .  S
C1025      C1026   1.400       .  A
C1025      C1030   1.396       .  A
C1025      F1043   1.358       .  S
C1026      C1031   1.474       .  S
C1026      C1027   1.403       .  A
C1027      C1028   1.401       .  A
C1027      F1032   1.358       .  S
C1028      C1029   1.412       .  A
C1028      F1044   1.358       .  S
C1029      C1030   1.411       .  A
C1030      F1033   1.358       .  S
C1031      C1034   1.402       .  A
C1031      C1038   1.401       .  A
C1034      C1035   1.404       .  A
C1034      F1039   1.358       .  S
C1035      C1036   1.414       .  A
C1035      F1041   1.358       .  S
C1036      C1037   1.409       .  A
C1037      C1038   1.393       .  A
C1037      F1040   1.358       .  S
C1038      F1042   1.358       .  S
C1045      C1046   1.401       .  A
C1045      C1050   1.403       .  A
C1045      F1063   1.358       .  S
C1046      C1051   1.494       .  S
C1046      C1047   1.402       .  A
C1047      C1048   1.407       .  A
C1047      F1052   1.358       .  S
C1048      C1049   1.427       .  A
C1048      F1064   1.356       .  S
C1049      C1050   1.423       .  A
C1050      F1053   1.355       .  S
C1051      C1054   1.407       .  A
C1051      C1058   1.405       .  A
C1054      C1055   1.405       .  A
C1054      F1059   1.358       .  S
C1055      C1056   1.411       .  A
C1055      F1061   1.358       .  S
C1056      C1057   1.413       .  A
C1057      C1058   1.405       .  A
C1057      F1060   1.358       .  S
C1058      F1062   1.358       .  S
C1065      C1066   1.404       .  A
C1065      C1070   1.403       .  A
C1065      F1083   1.358       .  S
C1066      C1071   1.483   1_554  S
C1066      C1067   1.403   1_655  A
C1067      C1068   1.399       .  A
C1067      F1072   1.358       .  S
C1068      C1069   1.412   1_455  A
C1068      F1084   1.358       .  S
C1069      C1070   1.411       .  A
C1070      F1073   1.357       .  S
C1071      C1074   1.403       .  A
C1071      C1078   1.405   1_655  A
C1074      C1075   1.399       .  A
C1074      F1079   1.358       .  S
C1075      C1076   1.411       .  A
C1075      F1081   1.358       .  S
C1076      C1077   1.410   1_655  A
C1077      C1078   1.403       .  A
C1077      F1080   1.357       .  S
C1078      F1082   1.357       .  S
C1085      C1086   1.409   1_545  A
C1085      C1090   1.403       .  A
C1085      F1103   1.358       .  S
C1086      C1091   1.490   1_564  S
C1086      C1087   1.406       .  A
C1087      C1088   1.397       .  A
C1087      F1092   1.358       .  S
C1088      C1089   1.409       .  A
C1088      F1104   1.358       .  S
C1089      C1090   1.409   1_565  A
C1090      F1093   1.358       .  S
C1091      C1094   1.408   1_545  A
C1091      C1098   1.406       .  A
C1094      C1095   1.402       .  A
C1094      F1099   1.358       .  S
C1095      C1096   1.410   1_565  A
C1095      F1101   1.358       .  S
C1096      C1097   1.410       .  A
C1097      C1098   1.398       .  A
C1097      F1100   1.358       .  S
C1098      F1102   1.358       .  S
C1105      C1106   1.400       .  A
C1105      C1110   1.393       .  A
C1105      F1123   1.358       .  S
C1106      C1111   1.471       .  S
C1106      C1107   1.402       .  A
C1107      C1108   1.402       .  A
C1107      F1112   1.358       .  S
C1108      C1109   1.411       .  A
C1108      F1124   1.358       .  S
C1109      C1110   1.410       .  A
C1110      F1113   1.358       .  S
C1111      C1114   1.402       .  A
C1111      C1118   1.400       .  A
C1114      C1115   1.400       .  A
C1114      F1119   1.358       .  S
C1115      C1116   1.411       .  A
C1115      F1121   1.358       .  S
C1116      C1117   1.409       .  A
C1117      C1118   1.397       .  A
C1117      F1120   1.358       .  S
C1118      F1122   1.358       .  S
C1125      C1126   1.407       .  A
C1125      C1130   1.406       .  A
C1125      F1143   1.357       .  S
C1126      C1131   1.487       .  S
C1126      C1127   1.405       .  A
C1127      C1128   1.396       .  A
C1127      F1132   1.358       .  S
C1128      C1129   1.410       .  A
C1128      F1144   1.358       .  S
C1129      C1130   1.410       .  A
C1130      F1133   1.357       .  S
C1131      C1134   1.406       .  A
C1131      C1138   1.405       .  A
C1134      C1135   1.404       .  A
C1134      F1139   1.358       .  S
C1135      C1136   1.413       .  A
C1135      F1141   1.358       .  S
C1136      C1137   1.410       .  A
C1137      C1138   1.398       .  A
C1137      F1140   1.358       .  S
C1138      F1142   1.358       .  S
C1145      C1146   1.404       .  A
C1145      C1150   1.401       .  A
C1145      F1163   1.358       .  S
C1146      C1151   1.485   1_554  S
C1146      C1147   1.405       .  A
C1147      C1148   1.402       .  A
C1147      F1152   1.358       .  S
C1148      C1149   1.411       .  A
C1148      F1164   1.358       .  S
C1149      C1150   1.410       .  A
C1150      F1153   1.358       .  S
C1151      C1154   1.406       .  A
C1151      C1158   1.403       .  A
C1154      C1155   1.405       .  A
C1154      F1159   1.357       .  S
C1155      C1156   1.410       .  A
C1155      F1161   1.357       .  S
C1156      C1157   1.414       .  A
C1157      C1158   1.397       .  A
C1157      F1160   1.358       .  S
C1158      F1162   1.358       .  S
C1165      C1166   1.406       .  A
C1165      C1170   1.404       .  A
C1165      F1183   1.358       .  S
C1166      C1171   1.486       .  S
C1166      C1167   1.405       .  A
C1167      C1168   1.398       .  A
C1167      F1172   1.358       .  S
C1168      C1169   1.409       .  A
C1168      F1184   1.358       .  S
C1169      C1170   1.412       .  A
C1170      F1173   1.357       .  S
C1171      C1174   1.406       .  A
C1171      C1178   1.405       .  A
C1174      C1175   1.404       .  A
C1174      F1179   1.357       .  S
C1175      C1176   1.409       .  A
C1175      F1181   1.357       .  S
C1176      C1177   1.410       .  A
C1177      C1178   1.398       .  A
C1177      F1180   1.358       .  S
C1178      F1182   1.358       .  S
C1185      C1186   1.407       .  A
C1185      C1190   1.403       .  A
C1185      F1203   1.358       .  S
C1186      C1191   1.487       .  S
C1186      C1187   1.407       .  A
C1187      C1188   1.395       .  A
C1187      F1192   1.358       .  S
C1188      C1189   1.409       .  A
C1188      F1204   1.358       .  S
C1189      C1190   1.411       .  A
C1190      F1193   1.358       .  S
C1191      C1194   1.408       .  A
C1191      C1198   1.407       .  A
C1194      C1195   1.400       .  A
C1194      F1199   1.358       .  S
C1195      C1196   1.408       .  A
C1195      F1201   1.358       .  S
C1196      C1197   1.406       .  A
C1197      C1198   1.397       .  A
C1197      F1200   1.358       .  S
C1198      F1202   1.358       .  S
C1205      C1206   1.404       .  A
C1205      C1210   1.401       .  A
C1205      F1223   1.358       .  S
C1206      C1211   1.485   1_556  S
C1206      C1207   1.405       .  A
C1207      C1208   1.403       .  A
C1207      F1212   1.358       .  S
C1208      C1209   1.412       .  A
C1208      F1224   1.358       .  S
C1209      C1210   1.411       .  A
C1210      F1213   1.357       .  S
C1211      C1214   1.405       .  A
C1211      C1218   1.406       .  A
C1214      C1215   1.397       .  A
C1214      F1219   1.358       .  S
C1215      C1216   1.408       .  A
C1215      F1221   1.358       .  S
C1216      C1217   1.409       .  A
C1217      C1218   1.405       .  A
C1217      F1220   1.358       .  S
C1218      F1222   1.357       .  S
C1225      C1226   1.401       .  A
C1225      C1230   1.396       .  A
C1225      F1243   1.358       .  S
C1226      C1231   1.474       .  S
C1226      C1227   1.402       .  A
C1227      C1228   1.400       .  A
C1227      F1232   1.358       .  S
C1228      C1229   1.412       .  A
C1228      F1244   1.358       .  S
C1229      C1230   1.411       .  A
C1230      F1233   1.358       .  S
C1231      C1234   1.401       .  A
C1231      C1238   1.401       .  A
C1234      C1235   1.398       .  A
C1234      F1239   1.358       .  S
C1235      C1236   1.413       .  A
C1235      F1241   1.358       .  S
C1236      C1237   1.412       .  A
C1237      C1238   1.400       .  A
C1237      F1240   1.357       .  S
C1238      F1242   1.358       .  S
C1245      C1246   1.406       .  A
C1245      C1250   1.404       .  A
C1245      F1263   1.358       .  S
C1246      C1251   1.489       .  S
C1246      C1247   1.405       .  A
C1247      C1248   1.400       .  A
C1247      F1252   1.358       .  S
C1248      C1249   1.411       .  A
C1248      F1264   1.358       .  S
C1249      C1250   1.411       .  A
C1250      F1253   1.358       .  S
C1251      C1254   1.407       .  A
C1251      C1258   1.406       .  A
C1254      C1255   1.402       .  A
C1254      F1259   1.358       .  S
C1255      C1256   1.407       .  A
C1255      F1261   1.358       .  S
C1256      C1257   1.409       .  A
C1257      C1258   1.402       .  A
C1257      F1260   1.358       .  S
C1258      F1262   1.358       .  S
C1265      C1266   1.406       .  A
C1265      C1270   1.400       .  A
C1265      F1283   1.358       .  S
C1266      C1271   1.490       .  S
C1266      C1267   1.406       .  A
C1267      C1268   1.403       .  A
C1267      F1272   1.358       .  S
C1268      C1269   1.412       .  A
C1268      F1284   1.358       .  S
C1269      C1270   1.411       .  A
C1270      F1273   1.357       .  S
C1271      C1274   1.404       .  A
C1271      C1278   1.407       .  A
C1274      C1275   1.398       .  A
C1274      F1279   1.358       .  S
C1275      C1276   1.411       .  A
C1275      F1281   1.358       .  S
C1276      C1277   1.413       .  A
C1277      C1278   1.407       .  A
C1277      F1280   1.357       .  S
C1278      F1282   1.358       .  S
C1285      C1286   1.406       .  A
C1285      C1290   1.404       .  A
C1285      F1303   1.358       .  S
C1286      C1291   1.484   1_556  S
C1286      C1287   1.403       .  A
C1287      C1288   1.397       .  A
C1287      F1292   1.358   1_565  S
C1288      C1289   1.412       .  A
C1288      F1304   1.358   1_565  S
C1289      C1290   1.410       .  A
C1290      F1293   1.358       .  S
C1291      C1294   1.405       .  A
C1291      C1298   1.407       .  A
C1294      C1295   1.400       .  A
C1294      F1299   1.358   1_554  S
C1295      C1296   1.408       .  A
C1295      F1301   1.358       .  S
C1296      C1297   1.408       .  A
C1297      C1298   1.402       .  A
C1297      F1300   1.358   1_565  S
C1298      F1302   1.358   1_565  S
C1305      C1306   1.407       .  A
C1305      C1310   1.403       .  A
C1305      F1323   1.357       .  S
C1306      C1311   1.500       .  S
C1306      C1307   1.412       .  A
C1307      C1308   1.405       .  A
C1307      F1312   1.358       .  S
C1308      C1309   1.408       .  A
C1308      F1324   1.358   1_545  S
C1309      C1310   1.411       .  A
C1310      F1313   1.357       .  S
C1311      C1314   1.401       .  A
C1311      C1318   1.408       .  A
C1314      C1315   1.398       .  A
C1314      F1319   1.359       .  S
C1315      C1316   1.429       .  A
C1315      F1321   1.356       .  S
C1316      C1317   1.421       .  A
C1317      C1318   1.407       .  A
C1317      F1320   1.357       .  S
C1318      F1322   1.357       .  S
C1325      C1326   1.404   1_455  A
C1325      C1330   1.405       .  A
C1325      F1343   1.358       .  S
C1326      C1331   1.482   1_654  S
C1326      C1327   1.402       .  A
C1327      C1328   1.399       .  A
C1327      F1332   1.358       .  S
C1328      C1329   1.411       .  A
C1328      F1344   1.357       .  S
C1329      C1330   1.414   1_655  A
C1330      F1333   1.358       .  S
C1331      C1334   1.402   1_455  A
C1331      C1338   1.404       .  A
C1334      C1335   1.398       .  A
C1334      F1339   1.358       .  S
C1335      C1336   1.412       .  A
C1335      F1341   1.358       .  S
C1336      C1337   1.411   1_655  A
C1337      C1338   1.405       .  A
C1337      F1340   1.357       .  S
C1338      F1342   1.357       .  S
C1345      C1346   1.405       .  A
C1345      C1350   1.398       .  A
C1345      F1363   1.358       .  S
C1346      C1351   1.481       .  S
C1346      C1347   1.404       .  A
C1347      C1348   1.398       .  A
C1347      F1352   1.358       .  S
C1348      C1349   1.411       .  A
C1348      F1364   1.358       .  S
C1349      C1350   1.408       .  A
C1350      F1353   1.358       .  S
C1351      C1354   1.405       .  A
C1351      C1358   1.404       .  A
C1354      C1355   1.396       .  A
C1354      F1359   1.358       .  S
C1355      C1356   1.409       .  A
C1355      F1361   1.358       .  S
C1356      C1357   1.411       .  A
C1357      C1358   1.400       .  A
C1357      F1360   1.358       .  S
C1358      F1362   1.358       .  S
C1365      C1366   1.407       .  A
C1365      C1370   1.405       .  A
C1365      F1383   1.358       .  S
C1366      C1371   1.488       .  S
C1366      C1367   1.405       .  A
C1367      C1368   1.397       .  A
C1367      F1372   1.358       .  S
C1368      C1369   1.409       .  A
C1368      F1384   1.358       .  S
C1369      C1370   1.409       .  A
C1370      F1373   1.357       .  S
C1371      C1374   1.404       .  A
C1371      C1378   1.406       .  A
C1374      C1375   1.398       .  A
C1374      F1379   1.358       .  S
C1375      C1376   1.411       .  A
C1375      F1381   1.358       .  S
C1376      C1377   1.412       .  A
C1377      C1378   1.404       .  A
C1377      F1380   1.358       .  S
C1378      F1382   1.358       .  S
C1385      C1386   1.406       .  A
C1385      C1390   1.404       .  A
C1385      F1403   1.358       .  S
C1386      C1391   1.491       .  S
C1386      C1387   1.407       .  A
C1387      C1388   1.399       .  A
C1387      F1392   1.358       .  S
C1388      C1389   1.410       .  A
C1388      F1404   1.358       .  S
C1389      C1390   1.413       .  A
C1390      F1393   1.357       .  S
C1391      C1394   1.406       .  A
C1391      C1398   1.400       .  A
C1394      C1395   1.407       .  A
C1394      F1399   1.357       .  S
C1395      C1396   1.422       .  A
C1395      F1401   1.355       .  S
C1396      C1397   1.424       .  A
C1397      C1398   1.393       .  A
C1397      F1400   1.357       .  S
C1398      F1402   1.359       .  S
C1405      C1406   1.405       .  A
C1405      C1410   1.403       .  A
C1405      F1423   1.358       .  S
C1406      C1411   1.483       .  S
C1406      C1407   1.404       .  A
C1407      C1408   1.399       .  A
C1407      F1412   1.358       .  S
C1408      C1409   1.409       .  A
C1408      F1424   1.357   1_455  S
C1409      C1410   1.412       .  A
C1410      F1413   1.358       .  S
C1411      C1414   1.399       .  A
C1411      C1418   1.402       .  A
C1414      C1415   1.399       .  A
C1414      F1419   1.358       .  S
C1415      C1416   1.426       .  A
C1415      F1421   1.355       .  S
C1416      C1417   1.421       .  A
C1417      C1418   1.398       .  A
C1417      F1420   1.358       .  S
C1418      F1422   1.358       .  S
C1425      C1426   1.400       .  A
C1425      C1430   1.398       .  A
C1425      F1443   1.358       .  S
C1426      C1431   1.494       .  S
C1426      C1427   1.406       .  A
C1427      C1428   1.406       .  A
C1427      F1432   1.357       .  S
C1428      C1429   1.420       .  A
C1428      F1444   1.358       .  S
C1429      C1430   1.430       .  A
C1430      F1433   1.356       .  S
C1431      C1434   1.407       .  A
C1431      C1438   1.411       .  A
C1434      C1435   1.399       .  A
C1434      F1439   1.358       .  S
C1435      C1436   1.408       .  A
C1435      F1441   1.358       .  S
C1436      C1437   1.407       .  A
C1437      C1438   1.406       .  A
C1437      F1440   1.358   1_455  S
C1438      F1442   1.358       .  S
C1445      C1446   1.401       .  A
C1445      C1450   1.406       .  A
C1445      F1463   1.358       .  S
C1446      C1451   1.486       .  S
C1446      C1447   1.398       .  A
C1447      C1448   1.394       .  A
C1447      F1452   1.358       .  S
C1448      C1449   1.423       .  A
C1448      F1464   1.356       .  S
C1449      C1450   1.429       .  A
C1450      F1453   1.355       .  S
C1451      C1454   1.406       .  A
C1451      C1458   1.403       .  A
C1454      C1455   1.402   1_455  A
C1454      F1459   1.358       .  S
C1455      C1456   1.412   1_655  A
C1455      F1461   1.358       .  S
C1456      C1457   1.412       .  A
C1457      C1458   1.401       .  A
C1457      F1460   1.357       .  S
C1458      F1462   1.358       .  S
C1465      C1466   1.399       .  A
C1465      C1470   1.400       .  A
C1465      F1483   1.358       .  S
C1466      C1471   1.483       .  S
C1466      C1467   1.398       .  A
C1467      C1468   1.398       .  A
C1467      F1472   1.358       .  S
C1468      C1469   1.428       .  A
C1468      F1484   1.355       .  S
C1469      C1470   1.424       .  A
C1470      F1473   1.357       .  S
C1471      C1474   1.404       .  A
C1471      C1478   1.403       .  A
C1474      C1475   1.401       .  A
C1474      F1479   1.358       .  S
C1475      C1476   1.412       .  A
C1475      F1481   1.358       .  S
C1476      C1477   1.412       .  A
C1477      C1478   1.401       .  A
C1477      F1480   1.357   1_455  S
C1478      F1482   1.358       .  S
C1485      C1486   1.401       .  A
C1485      C1490   1.405       .  A
C1485      F1503   1.358       .  S
C1486      C1491   1.484       .  S
C1486      C1487   1.397       .  A
C1487      C1488   1.399       .  A
C1487      F1492   1.358       .  S
C1488      C1489   1.426       .  A
C1488      F1504   1.355       .  S
C1489      C1490   1.423       .  A
C1490      F1493   1.357       .  S
C1491      C1494   1.400       .  A
C1491      C1498   1.399       .  A
C1494      C1495   1.405       .  A
C1494      F1499   1.358       .  S
C1495      C1496   1.427       .  A
C1495      F1501   1.355       .  S
C1496      C1497   1.423       .  A
C1497      C1498   1.398       .  A
C1497      F1500   1.357       .  S
C1498      F1502   1.358       .  S
C1505      C1506   1.407       .  A
C1505      C1510   1.408       .  A
C1505      F1523   1.357       .  S
C1506      C1511   1.493       .  S
C1506      C1507   1.405       .  A
C1507      C1508   1.401       .  A
C1507      F1512   1.358       .  S
C1508      C1509   1.413       .  A
C1508      F1524   1.358       .  S
C1509      C1510   1.410       .  A
C1510      F1513   1.357       .  S
C1511      C1514   1.401       .  A
C1511      C1518   1.402       .  A
C1514      C1515   1.400       .  A
C1514      F1519   1.358       .  S
C1515      C1516   1.427       .  A
C1515      F1521   1.355       .  S
C1516      C1517   1.424       .  A
C1517      C1518   1.405       .  A
C1517      F1520   1.356       .  S
C1518      F1522   1.357       .  S
C1525      C1526   1.400       .  A
C1525      C1530   1.397       .  A
C1525      F1543   1.358       .  S
C1526      C1531   1.489       .  S
C1526      C1527   1.403       .  A
C1527      C1528   1.406       .  A
C1527      F1532   1.358       .  S
C1528      C1529   1.426       .  A
C1528      F1544   1.356       .  S
C1529      C1530   1.422       .  A
C1530      F1533   1.356       .  S
C1531      C1534   1.405       .  A
C1531      C1538   1.406       .  A
C1534      C1535   1.398       .  A
C1534      F1539   1.358       .  S
C1535      C1536   1.411       .  A
C1535      F1541   1.358       .  S
C1536      C1537   1.413       .  A
C1537      C1538   1.406       .  A
C1537      F1540   1.357       .  S
C1538      F1542   1.357       .  S
C1545      C1546   1.400       .  A
C1545      C1550   1.403       .  A
C1545      F1563   1.358       .  S
C1546      C1551   1.484       .  S
C1546      C1547   1.400       .  A
C1547      C1548   1.402       .  A
C1547      F1552   1.358       .  S
C1548      C1549   1.421       .  A
C1548      F1564   1.357       .  S
C1549      C1550   1.425       .  A
C1550      F1553   1.356       .  S
C1551      C1554   1.400       .  A
C1551      C1558   1.397       .  A
C1554      C1555   1.402       .  A
C1554      F1559   1.358       .  S
C1555      C1556   1.423       .  A
C1555      F1561   1.357       .  S
C1556      C1557   1.428       .  A
C1557      C1558   1.402       .  A
C1557      F1560   1.356       .  S
C1558      F1562   1.358       .  S
C1565      C1566   1.401       .  A
C1565      C1570   1.404       .  A
C1565      F1583   1.358       .  S
C1566      C1571   1.493       .  S
C1566      C1567   1.402       .  A
C1567      C1568   1.401       .  A
C1567      F1572   1.358       .  S
C1568      C1569   1.423       .  A
C1568      F1584   1.357       .  S
C1569      C1570   1.429       .  A
C1570      F1573   1.354       .  S
C1571      C1574   1.407       .  A
C1571      C1578   1.406       .  A
C1574      C1575   1.402       .  A
C1574      F1579   1.357       .  S
C1575      C1576   1.410       .  A
C1575      F1581   1.358       .  S
C1576      C1577   1.412       .  A
C1577      C1578   1.403       .  A
C1577      F1580   1.358       .  S
C1578      F1582   1.358       .  S
C1585      C1586   1.407       .  A
C1585      C1590   1.403       .  A
C1585      F1603   1.358       .  S
C1586      C1591   1.492       .  S
C1586      C1587   1.406       .  A
C1587      C1588   1.401       .  A
C1587      F1592   1.358       .  S
C1588      C1589   1.410       .  A
C1588      F1604   1.357       .  S
C1589      C1590   1.413       .  A
C1590      F1593   1.358       .  S
C1591      C1594   1.401       .  A
C1591      C1598   1.404       .  A
C1594      C1595   1.399       .  A
C1594      F1599   1.358       .  S
C1595      C1596   1.426       .  A
C1595      F1601   1.356       .  S
C1596      C1597   1.424       .  A
C1597      C1598   1.403       .  A
C1597      F1600   1.354       .  S
C1598      F1602   1.358       .  S
C1605      C1606   1.402       .  A
C1605      C1610   1.403       .  A
C1605      F1623   1.358       .  S
C1606      C1611   1.486       .  S
C1606      C1607   1.399       .  A
C1607      C1608   1.399       .  A
C1607      F1612   1.358       .  S
C1608      C1609   1.428       .  A
C1608      F1624   1.356       .  S
C1609      C1610   1.421       .  A
C1610      F1613   1.356       .  S
C1611      C1614   1.400       .  A
C1611      C1618   1.400       .  A
C1614      C1615   1.400       .  A
C1614      F1619   1.358       .  S
C1615      C1616   1.423       .  A
C1615      F1621   1.357       .  S
C1616      C1617   1.426       .  A
C1617      C1618   1.402       .  A
C1617      F1620   1.355       .  S
C1618      F1622   1.358       .  S
C1625      C1626   1.407       .  A
C1625      C1630   1.405       .  A
C1625      F1643   1.357       .  S
C1626      C1631   1.494       .  S
C1626      C1627   1.407       .  A
C1627      C1628   1.406       .  A
C1627      F1632   1.358       .  S
C1628      C1629   1.413       .  A
C1628      F1644   1.358       .  S
C1629      C1630   1.408       .  A
C1630      F1633   1.357       .  S
C1631      C1634   1.403       .  A
C1631      C1638   1.402       .  A
C1634      C1635   1.405       .  A
C1634      F1639   1.358       .  S
C1635      C1636   1.425       .  A
C1635      F1641   1.355       .  S
C1636      C1637   1.425       .  A
C1637      C1638   1.404       .  A
C1637      F1640   1.357       .  S
C1638      F1642   1.358       .  S
C1645      C1646   1.401       .  A
C1645      C1650   1.398       .  A
C1645      F1663   1.359       .  S
C1646      C1651   1.491       .  S
C1646      C1647   1.402       .  A
C1647      C1648   1.405       .  A
C1647      F1652   1.358       .  S
C1648      C1649   1.425       .  A
C1648      F1664   1.356       .  S
C1649      C1650   1.427       .  A
C1650      F1653   1.355       .  S
C1651      C1654   1.408       .  A
C1651      C1658   1.406       .  A
C1654      C1655   1.402       .  A
C1654      F1659   1.358       .  S
C1655      C1656   1.410       .  A
C1655      F1661   1.358       .  S
C1656      C1657   1.411       .  A
C1657      C1658   1.401       .  A
C1657      F1660   1.358       .  S
C1658      F1662   1.358       .  S
C1665      C1666   1.403       .  A
C1665      C1670   1.409       .  A
C1665      F1683   1.357       .  S
C1666      C1671   1.498       .  S
C1666      C1667   1.401       .  A
C1667      C1668   1.406       .  A
C1667      F1672   1.358       .  S
C1668      C1669   1.427       .  A
C1668      F1684   1.356       .  S
C1669      C1670   1.424       .  A
C1670      F1673   1.357       .  S
C1671      C1674   1.404       .  A
C1671      C1678   1.400       .  A
C1674      C1675   1.412       .  A
C1674      F1679   1.357       .  S
C1675      C1676   1.425       .  A
C1675      F1681   1.355       .  S
C1676      C1677   1.426       .  A
C1677      C1678   1.403       .  A
C1677      F1680   1.357       .  S
C1678      F1682   1.358       .  S
C1685      C1686   1.405       .  A
C1685      C1690   1.407       .  A
C1685      F1703   1.358       .  S
C1686      C1691   1.496       .  S
C1686      C1687   1.408       .  A
C1687      C1688   1.403       .  A
C1687      F1692   1.358       .  S
C1688      C1689   1.410       .  A
C1688      F1704   1.358       .  S
C1689      C1690   1.415       .  A
C1690      F1693   1.358       .  S
C1691      C1694   1.398       .  A
C1691      C1698   1.405       .  A
C1694      C1695   1.398       .  A
C1694      F1699   1.359       .  S
C1695      C1696   1.426       .  A
C1695      F1701   1.353       .  S
C1696      C1697   1.425       .  A
C1697      C1698   1.411       .  A
C1697      F1700   1.355       .  S
C1698      F1702   1.357       .  S
C1705      C1706   1.401       .  A
C1705      C1710   1.397       .  A
C1705      F1723   1.358       .  S
C1706      C1711   1.491       .  S
C1706      C1707   1.404       .  A
C1707      C1708   1.405       .  A
C1707      F1712   1.358       .  S
C1708      C1709   1.422       .  A
C1708      F1724   1.356       .  S
C1709      C1710   1.425       .  A
C1710      F1713   1.356       .  S
C1711      C1714   1.407       .  A
C1711      C1718   1.406       .  A
C1714      C1715   1.405       .  A
C1714      F1719   1.357       .  S
C1715      C1716   1.411       .  A
C1715      F1721   1.357       .  S
C1716      C1717   1.410       .  A
C1717      C1718   1.398       .  A
C1717      F1720   1.358       .  S
C1718      F1722   1.358       .  S
C1725      C1726   1.410       .  A
C1725      C1730   1.402       .  A
C1725      F1743   1.358       .  S
C1726      C1731   1.513       .  S
C1726      C1727   1.409       .  A
C1727      C1728   1.403       .  A
C1727      F1732   1.357       .  S
C1728      C1729   1.425       .  A
C1728      F1744   1.357       .  S
C1729      C1730   1.425       .  A
C1730      F1733   1.351       .  S
C1731      C1734   1.409       .  A
C1731      C1738   1.411       .  A
C1734      C1735   1.401       .  A
C1734      F1739   1.358       .  S
C1735      C1736   1.425       .  A
C1735      F1741   1.356       .  S
C1736      C1737   1.419       .  A
C1737      C1738   1.404       .  A
C1737      F1740   1.357       .  S
C1738      F1742   1.357       .  S
C1745      C1746   1.405       .  A
C1745      C1750   1.407       .  A
C1745      F1763   1.357       .  S
C1746      C1751   1.509       .  S
C1746      C1747   1.408       .  A
C1747      C1748   1.405       .  A
C1747      F1752   1.358       .  S
C1748      C1749   1.421       .  A
C1748      F1764   1.355       .  S
C1749      C1750   1.428       .  A
C1750      F1753   1.355       .  S
C1751      C1754   1.409       .  A
C1751      C1758   1.404       .  A
C1754      C1755   1.411       .  A
C1754      F1759   1.357       .  S
C1755      C1756   1.424       .  A
C1755      F1761   1.357       .  S
C1756      C1757   1.429       .  A
C1757      C1758   1.400       .  A
C1757      F1760   1.354       .  S
C1758      F1762   1.358       .  S
