geometry optimzed in LAMMPS
_audit_creation_date              2020-11-30 
_audit_creation_method            'lammps2cif' 
_symmetry_space_group_name_H-M    'P1' 
_symmetry_Int_Tables_number       1 
_symmetry_cell_setting            triclinic 
loop_ 
_symmetry_equiv_pos_as_xyz 
  x,y,z 
_cell_length_a                    53.52397750692811 
_cell_length_b                    25.209241624638857 
_cell_length_c                    30.51302465606227 
_cell_angle_alpha                 92.48949602892817 
_cell_angle_beta                  104.70376499181918 
_cell_angle_gamma                 90.39316480508872 
loop_ 
_atom_site_label 
_atom_site_type_symbol 
_atom_site_fract_x 
_atom_site_fract_y 
_atom_site_fract_z 
_atom_site_charge 
O1          O  0.16336086  0.79312615  0.36612172    -0.75170
O2          O  0.18013117  0.76912593  0.30766143    -0.54080
C3          C  0.17205348  0.80425125  0.33213425     0.78560
O4          O  0.17580684  0.63147228  0.50941270    -0.59770
O5          O  0.13662311  0.58913297  0.48536628    -0.52800
C6          C  0.15554556  0.60946069  0.51685397     0.70570
O7          O  0.23003863  0.70308042  0.43370202    -0.74330
O8          O  0.22587830  0.71316279  0.35811872    -0.54890
C9          C  0.23805420  0.71806552  0.39977344     0.76570
O10         O  0.09887816  0.71263368  0.41118503    -0.59470
O11         O  0.09261739  0.62474061  0.42054409    -0.52590
C12         C  0.08725661  0.67351517  0.42399148     0.73170
Zr13       Zr  0.13120719  0.72592279  0.36846444     2.54710
O14         O  0.12234661  0.80716271  0.40750198    -0.80040
O15         O  0.09974101  0.76595602  0.30726703    -0.93460
Zr16       Zr  0.19240850  0.65639347  0.44539896     2.64680
O17         O  0.20073106  0.73507199  0.49642425    -0.98410
O18         O  0.22784531  0.60958123  0.49372667    -0.80470
O19         O  0.17657173  0.71520915  0.38713079    -0.83830
O20         O  0.14713967  0.66934507  0.42841740    -2.18540
O21         O  0.08188973  0.57145691  0.28986127    -0.67220
O22         O  0.09191606  0.53231515  0.35723849    -0.51790
C23         C  0.07966607  0.53344934  0.31519045     0.71550
O24         O  0.20814885  0.54236586  0.30069908    -0.60130
O25         O  0.21605522  0.62912453  0.28914675    -0.52110
C26         C  0.21851947  0.57916121  0.28265019     0.73350
O27         O  0.17342670  0.47662948  0.41467636    -0.71520
O28         O  0.13550949  0.49824147  0.43156398    -0.50200
C29         C  0.15582788  0.47057764  0.43652574     0.74730
O30         O  0.13622403  0.64217504  0.21358304    -0.66850
O31         O  0.17575358  0.68212016  0.24010343    -0.54050
C32         C  0.15637491  0.66663618  0.20790453     0.73120
Zr33       Zr  0.12159115  0.60600375  0.27672027     2.77540
O34         O  0.12053957  0.52808378  0.22624091    -0.97600
O35         O  0.08459975  0.64081899  0.22236309    -0.78420
Zr36       Zr  0.18198126  0.53325028  0.35527226     2.70070
O37         O  0.16814662  0.45030162  0.31165820    -0.79670
O38         O  0.22403863  0.49421202  0.38374933    -0.98750
Zr39       Zr  0.18527480  0.67572093  0.32067161     2.21500
Zr40       Zr  0.12816654  0.58437236  0.40233638     2.11130
O41         O  0.13690556  0.54469291  0.33520396    -2.47440
O42         O  0.16632407  0.59135361  0.29545786    -0.79460
O43         O  0.11114501  0.64262300  0.34298107    -0.71660
O44         O  0.20239910  0.61700370  0.37977854    -2.32620
O45         O  0.14011587  0.69112076  0.30067150    -2.28820
O46         O  0.17338841  0.57185529  0.42172309    -0.73420
H47         H  0.14230307  0.68326333  0.45500510     0.78580
H48         H  0.22082350  0.61328680  0.38438088     0.79670
H49         H  0.12892503  0.50998038  0.32711486     0.81890
H50         H  0.13538907  0.71594616  0.27683194     0.79500
H51         H  0.23721501  0.59331052  0.47258081     0.42530
H52         H  0.23016545  0.50983894  0.41500652     0.41500
H53         H  0.16522484  0.45983203  0.27963183     0.41180
H54         H  0.11760605  0.49755936  0.24371732     0.39110
H55         H  0.08262996  0.67712294  0.23464208     0.42250
H56         H  0.08534245  0.77595180  0.32072107     0.37030
H57         H  0.13497696  0.80748131  0.43751426     0.43150
H58         H  0.18391196  0.74286339  0.50300740     0.39560
H59         H  0.10439188  0.53097005  0.20203389     0.44480
H60         H  0.10785907  0.80022883  0.30326981     0.43200
H61         H  0.21170891  0.72257661  0.52519511     0.43340
H62         H  0.22016689  0.45647151  0.38748906     0.43700
O63         O  0.09312163  0.68512715  0.91143051    -0.75170
O64         O  0.11974987  0.75492488  0.94390350    -0.54080
C65         C  0.09876277  0.72629730  0.93809694     0.78560
O66         O  0.15230760  0.50179088  0.90627466    -0.59770
O67         O  0.17346532  0.48764894  0.85290692    -0.52800
C68         C  0.16781679  0.47504460  0.88981199     0.70570
O69         O  0.15463730  0.63775880  0.00397111    -0.74330
O70         O  0.16538628  0.72529341  0.00313149    -0.54890
C71         C  0.15954670  0.68462449  0.02274860     0.76570
O72         O  0.08738939  0.56814217  0.80177854    -0.59470
O73         O  0.11952421  0.52215214  0.78051646    -0.52590
C74         C  0.09606173  0.52877881  0.78226195     0.73170
Zr75       Zr  0.10605568  0.64709963  0.84797701     2.54710
O76         O  0.06530598  0.61271271  0.85790154    -0.80040
O77         O  0.07772955  0.70432679  0.79576467    -0.93460
Zr78       Zr  0.16477870  0.58884115  0.94011107     2.64680
O79         O  0.15220446  0.53205002  0.99392501    -0.98410
O80         O  0.20649841  0.57028474  0.99085436    -0.80470
O81         O  0.13536747  0.65752085  0.92105425    -0.83830
O82         O  0.13427133  0.57655651  0.86746442    -2.18540
O83         O  0.15116097  0.66776018  0.72242158    -0.67220
O84         O  0.15249667  0.57806741  0.72999472    -0.51790
C85         C  0.15120334  0.61967725  0.70624041     0.71550
O86         O  0.21547410  0.75292830  0.89012262    -0.60130
O87         O  0.20536176  0.77481963  0.95420280    -0.52110
C88         C  0.22193356  0.77435972  0.92989499     0.73350
O89         O  0.22903195  0.60140412  0.82732508    -0.71520
O90         O  0.19703834  0.54503671  0.78704341    -0.50200
C91         C  0.22008033  0.56491071  0.79644683     0.74730
O92         O  0.15930407  0.81023249  0.82123571    -0.66850
O93         O  0.15907787  0.82281482  0.89571956    -0.54050
C94         C  0.16003648  0.83966977  0.85708912     0.73120
Zr95       Zr  0.15322400  0.71817496  0.79341627     2.77540
O96         O  0.17915144  0.76578009  0.75230742    -0.97600
O97         O  0.11364107  0.75320141  0.74620864    -0.78420
Zr98       Zr  0.21304200  0.65784119  0.88103619     2.70070
O99         O  0.25579486  0.68490419  0.87509209    -0.79670
O100        O  0.24357807  0.63093273  0.94983778    -0.98750
Zr101      Zr  0.16099237  0.73527177  0.92297781     2.21500
Zr102      Zr  0.15916701  0.56934369  0.81205790     2.11130
O103        O  0.18312077  0.64838963  0.80921762    -2.47440
O104        O  0.18332538  0.72769504  0.86447473    -0.79460
O105        O  0.12907069  0.63932003  0.79198144    -0.71660
O106        O  0.19107117  0.66451660  0.94020455    -2.32620
O107        O  0.12996052  0.72680959  0.84995124    -2.28820
O108        O  0.18935557  0.57972901  0.88477471    -0.73420
H109        H  0.12203889  0.54780435  0.86565228     0.78580
H110        H  0.20295500  0.67137247  0.96957243     0.79670
H111        H  0.19168057  0.64734245  0.78494662     0.81890
H112        H  0.11872392  0.75700099  0.84529621     0.79500
H113        H  0.20488407  0.58206984  0.02137711     0.42530
H114        H  0.25556353  0.60700896  0.93899464     0.41500
H115        H  0.25250206  0.70581033  0.84752638     0.41180
H116        H  0.19162031  0.73950159  0.74605748     0.39110
H117        H  0.10553270  0.72274711  0.72585556     0.42250
H118        H  0.06559119  0.71833141  0.81292025     0.37030
H119        H  0.07034652  0.58558005  0.88090799     0.43150
H120        H  0.13487552  0.51749822  0.97811448     0.39560
H121        H  0.16727306  0.77151298  0.72230092     0.44480
H122        H  0.06709410  0.67950856  0.77220604     0.43200
H123        H  0.16379491  0.50127007  0.99668084     0.43340
H124        H  0.25404940  0.66332170  0.96201703     0.43700
O125        O  0.00102456  0.90463234  0.06318909    -0.75170
O126        O  0.00432708  0.85905267  0.99945882    -0.54080
C127        C  0.01405827  0.87850083  0.04026796     0.78560
O128        O  0.41829290  0.68044437  0.04179087    -0.59770
O129        O  0.38361901  0.72824254  0.05168828    -0.52800
C130        C  0.39593737  0.68337811  0.04918311     0.70570
O131        O  0.48905284  0.73502114  0.99827371    -0.74330
O132        O  0.98596165  0.78137659  0.93535524    -0.54890
C133        C  0.99873351  0.75330046  0.96683537     0.76570
O134        O  0.44592090  0.87515898  0.14524345    -0.59470
O135        O  0.40666566  0.83252844  0.13015463    -0.52590
C136        C  0.42728743  0.85310506  0.15769058     0.73170
Zr137      Zr  0.46070002  0.87855506  0.07623092     2.54710
O138        O  0.49064564  0.83160519  0.13451546    -0.80040
O139        O  0.47144378  0.96387691  0.11723105    -0.93460
Zr140      Zr  0.44510717  0.73767998  0.01294551     2.64680
O141        O  0.47223834  0.69187761  0.07600620    -0.98410
O142        O  0.44018851  0.65865110  0.96239319    -0.80470
O143        O  0.46978842  0.81533011  0.02292345    -0.83830
O144        O  0.43578025  0.79931838  0.06862996    -2.18540
O145        O  0.37472597  0.96874389  0.00193193    -0.67220
O146        O  0.37711547  0.92236987  0.06500865    -0.51790
C147        C  0.37236480  0.96574311  0.04209512     0.71550
O148        O  0.39973568  0.81714489  0.85293938    -0.60130
O149        O  0.44326097  0.83312381  0.86737872    -0.52110
C150        C  0.42050153  0.82509675  0.84026502     0.73350
O151        O  0.34430234  0.79879590  0.93996440    -0.71520
O152        O  0.34626267  0.81404734  0.01504782    -0.50200
C153        C  0.33352139  0.80460886  0.97357539     0.74730
O154        O  0.43260835  0.98063087  0.91961831    -0.66850
O155        O  0.46699582  0.92964168  0.91549530    -0.54050
C156        C  0.45254940  0.96962093  0.90441297     0.73120
Zr157      Zr  0.41152816  0.94437639  0.97611837     2.77540
O158        O  0.38275561  0.99722282  0.92029201    -0.97600
O159        O  0.43050958  0.02535551  0.01804730    -0.78420
Zr160      Zr  0.38766599  0.80145795  0.92255423     2.70070
O161        O  0.35192948  0.81272524  0.85626686    -0.79670
O162        O  0.38222141  0.70684287  0.90252522    -0.98750
Zr163      Zr  0.45926140  0.85057003  0.94999277     2.21500
Zr164      Zr  0.39209503  0.82895664  0.04671574     2.11130
O165        O  0.38289865  0.87002507  0.97433477    -2.47440
O166        O  0.41542261  0.87629213  0.92416265    -0.79460
O167        O  0.41836745  0.90721283  0.04937893    -0.71660
O168        O  0.43185098  0.77362269  0.94080452    -2.32620
O169        O  0.45423354  0.91798411  0.00413914    -2.28820
O170        O  0.40077437  0.76423812  0.99334620    -0.73420
H171        H  0.43906505  0.78183183  0.09700040     0.78580
H172        H  0.43489440  0.74920326  0.91750032     0.79670
H173        H  0.36545312  0.88268004  0.96576512     0.81890
H174        H  0.46597994  0.94760538  0.00535991     0.79500
H175        H  0.45594164  0.65816162  0.95101434     0.42530
H176        H  0.36386709  0.69903119  0.90107862     0.41500
H177        H  0.34852369  0.85128203  0.85683534     0.41180
H178        H  0.36578583  0.97849908  0.91329872     0.39110
H179        H  0.43999201  0.01357072  0.04813716     0.42250
H180        H  0.48086679  0.98322870  0.09870696     0.37030
H181        H  0.98686403  0.79403133  0.12618751     0.43150
H182        H  0.46374613  0.69649549  0.10117883     0.39560
H183        H  0.38032813  0.03054039  0.93703187     0.44480
H184        H  0.48488628  0.95582645  0.14491873     0.43200
H185        H  0.46981572  0.65369146  0.06665737     0.43340
H186        H  0.38323370  0.70374713  0.87056385     0.43700
O187        O  0.99797043  0.83228844  0.57760778    -0.75170
O188        O  0.01205188  0.87550100  0.52678739    -0.54080
C189        C  0.01502983  0.86194005  0.56796530     0.78560
O190        O  0.41084476  0.67597600  0.52394454    -0.59770
O191        O  0.37712874  0.72510250  0.53582952    -0.52800
C192        C  0.38856427  0.67968552  0.53135639     0.70570
O193        O  0.48626949  0.71427677  0.50183687    -0.74330
O194        O  0.00013785  0.78395207  0.46811671    -0.54890
C195        C  0.00255764  0.73806709  0.48464513     0.76570
O196        O  0.43504025  0.83788260  0.64455676    -0.59470
O197        O  0.39187107  0.82445297  0.61467554    -0.52590
C198        C  0.41226588  0.82767687  0.64836538     0.73170
Zr199      Zr  0.45698205  0.86456023  0.58912940     2.54710
O200        O  0.48593305  0.85085809  0.66385032    -0.80040
O201        O  0.45211904  0.95438790  0.62121366    -0.93460
Zr202      Zr  0.44382947  0.73280005  0.51342463     2.64680
O203        O  0.46594645  0.69253565  0.58364911    -0.98410
O204        O  0.44110364  0.65012932  0.46796357    -0.80470
O205        O  0.47025661  0.80735215  0.53609080    -0.83830
O206        O  0.42960038  0.78868904  0.56701328    -2.18540
O207        O  0.37578479  0.96035705  0.48260317    -0.67220
O208        O  0.36927733  0.91661389  0.54187800    -0.51790
C209        C  0.36697359  0.95868922  0.51724322     0.71550
O210        O  0.42190379  0.82265095  0.35480475    -0.60130
O211        O  0.46390504  0.84939084  0.38532488    -0.52110
C212        C  0.44413108  0.83784361  0.35126747     0.73350
O213        O  0.35580511  0.78944184  0.41343109    -0.71520
O214        O  0.34756628  0.80920200  0.48232859    -0.50200
C215        C  0.34079519  0.79418505  0.44037317     0.74730
O216        O  0.44370224  0.97403891  0.42962765    -0.66850
O217        O  0.48285120  0.94017406  0.45737932    -0.54050
C218        C  0.46772546  0.96915896  0.42994783     0.73120
Zr219      Zr  0.41953208  0.94431286  0.48388379     2.77540
O220        O  0.40358285  0.02503573  0.44546424    -0.97600
O221        O  0.43698927  0.01450848  0.54107423    -0.78420
Zr222      Zr  0.40079604  0.80808676  0.41385367     2.70070
O223        O  0.37125470  0.84597926  0.34902681    -0.79670
O224        O  0.39599364  0.71946761  0.37743159    -0.98750
Zr225      Zr  0.47085883  0.85268043  0.46979434     2.21500
Zr226      Zr  0.38859561  0.82446602  0.53237975     2.11130
O227        O  0.38946339  0.87013843  0.46464195    -2.47440
O228        O  0.42952255  0.88295585  0.43131274    -0.79460
O229        O  0.41721377  0.89933460  0.55067430    -0.71660
O230        O  0.44289732  0.77683441  0.44642861    -2.32620
O231        O  0.45973935  0.91329113  0.52431987    -2.28820
O232        O  0.40194380  0.76412055  0.48033073    -0.73420
H233        H  0.42871364  0.76610838  0.59132079     0.78580
H234        H  0.44876087  0.75411481  0.42488002     0.79670
H235        H  0.37231207  0.87997251  0.44858232     0.81890
H236        H  0.47186033  0.94267246  0.53188418     0.79500
H237        H  0.43681979  0.66087658  0.43614185     0.42530
H238        H  0.38814360  0.69788182  0.39697826     0.41500
H239        H  0.37246567  0.88472838  0.35628703     0.41180
H240        H  0.38843234  0.01365541  0.42060582     0.39110
H241        H  0.42174685  0.02916206  0.54980066     0.42250
H242        H  0.43337450  0.95922877  0.61749086     0.37030
H243        H  0.98081269  0.87621772  0.68546070     0.43150
H244        H  0.45204297  0.68053613  0.59719676     0.39560
H245        H  0.39642601  0.04684403  0.46702013     0.44480
H246        H  0.45893084  0.95257153  0.65445355     0.43200
H247        H  0.47301143  0.65927131  0.57363515     0.43340
H248        H  0.38203835  0.72277784  0.34937216     0.43700
O249        O  0.28781905  0.49481357  0.14304459    -0.75170
O250        O  0.26216983  0.43356782  0.16380385    -0.54080
C251        C  0.27015480  0.48107440  0.16242418     0.78560
O252        O  0.29312328  0.32550616  0.94789303    -0.59770
O253        O  0.33689243  0.31958280  0.97037315    -0.52800
C254        C  0.31542176  0.32206197  0.93988600     0.70570
O255        O  0.23074405  0.33344794  0.02025088    -0.74330
O256        O  0.23358146  0.38672617  0.08212880    -0.54890
C257        C  0.22239612  0.37117218  0.04082214     0.76570
O258        O  0.34047726  0.48289487  0.05848475    -0.59470
O259        O  0.36604337  0.41584599  0.04297100    -0.52590
C260        C  0.35993434  0.46642588  0.04596618     0.73170
Zr261      Zr  0.31421656  0.44640882  0.09955391     2.54710
O262        O  0.29215098  0.51819213  0.05531264    -0.80040
O263        O  0.34592532  0.50354574  0.15244743    -0.93460
Zr264      Zr  0.27355060  0.33750316  0.01038801     2.64680
O265        O  0.25839436  0.41029060  0.96166763    -0.98410
O266        O  0.24720596  0.27690058  0.95242451    -0.80470
O267        O  0.27494086  0.40085888  0.07156490    -0.83830
O268        O  0.31213969  0.38791441  0.03429296    -2.18540
O269        O  0.39239607  0.32812494  0.16284887    -0.67220
O270        O  0.39029914  0.32063872  0.08739209    -0.51790
C271        C  0.40314143  0.32362309  0.12891103     0.71550
O272        O  0.25499011  0.21231666  0.11801290    -0.60130
O273        O  0.24256795  0.29025723  0.14617026    -0.52110
C274        C  0.23892083  0.24130071  0.13460768     0.73350
O275        O  0.31726566  0.19221541  0.03705894    -0.71520
O276        O  0.35689438  0.22680603  0.04699939    -0.50200
C277        C  0.34151890  0.18559680  0.04373067     0.74730
O278        O  0.32719978  0.33093424  0.23896781    -0.66850
O279        O  0.28359096  0.34368575  0.21587099    -0.54050
C280        C  0.30464745  0.33572075  0.24631490     0.73120
Zr281      Zr  0.34746412  0.33138362  0.17623391     2.77540
O282        O  0.36776139  0.25803408  0.22071745    -0.97600
O283        O  0.37227798  0.39662949  0.23172456    -0.78420
Zr284      Zr  0.29823189  0.22593568  0.09611543     2.70070
O285        O  0.32128195  0.16603136  0.15238556    -0.79670
O286        O  0.27694619  0.14305397  0.06181312    -0.98750
Zr287      Zr  0.27283602  0.35125542  0.13428095     2.21500
Zr288      Zr  0.34539692  0.32433766  0.05235843     2.11130
O289        O  0.34031995  0.27066082  0.11398280    -2.47440
O290        O  0.30571369  0.28744879  0.15802818    -0.79460
O291        O  0.34902574  0.38516633  0.11586167    -0.71660
O292        O  0.26716840  0.28899438  0.07155831    -2.32620
O293        O  0.31369320  0.39511121  0.16098506    -2.28820
O294        O  0.30525384  0.27385501  0.03302036    -0.73420
H295        H  0.31418037  0.40797202  0.00914623     0.78580
H296        H  0.25079311  0.27043515  0.06247169     0.79670
H297        H  0.35375340  0.24485465  0.12212692     0.81890
H298        H  0.31448941  0.41744791  0.18785459     0.79500
H299        H  0.25007440  0.24156512  0.96560424     0.42530
H300        H  0.27266151  0.12442550  0.08693667     0.41500
H301        H  0.31859802  0.18052460  0.18149241     0.41180
H302        H  0.37876444  0.24090432  0.20276490     0.39110
H303        H  0.37875176  0.42235841  0.21339502     0.42250
H304        H  0.34221048  0.49929037  0.18228939     0.37030
H305        H  0.28328485  0.50088484  0.02563650     0.43150
H306        H  0.27406948  0.42773813  0.95701882     0.39560
H307        H  0.38014477  0.27539283  0.24728273     0.44480
H308        H  0.34050392  0.54009920  0.14442971     0.43200
H309        H  0.24982670  0.39282498  0.93191103     0.43340
H310        H  0.26008036  0.15377489  0.04256250     0.43700
O311        O  0.29424530  0.48742524  0.66197706    -0.75170
O312        O  0.26654981  0.42729824  0.67904640    -0.54080
C313        C  0.27692097  0.47349538  0.68194174     0.78560
O314        O  0.28196561  0.34570776  0.44584481    -0.59770
O315        O  0.32432105  0.32322037  0.46166350    -0.52800
C316        C  0.30272550  0.33382109  0.43403356     0.70570
O317        O  0.22665566  0.36896039  0.53133844    -0.74330
O318        O  0.22757280  0.36427806  0.60640997    -0.54890
C319        C  0.21584433  0.36989673  0.56428221     0.76570
O320        O  0.34340734  0.47917753  0.57005118    -0.59470
O321        O  0.35718885  0.41308780  0.52815647    -0.52590
C322        C  0.35587021  0.46320469  0.54198960     0.73170
Zr323      Zr  0.31616751  0.44248767  0.60973954     2.54710
O324        O  0.29583156  0.52107412  0.57371316    -0.80040
O325        O  0.35073655  0.49078803  0.66465803    -0.93460
Zr326      Zr  0.26756474  0.35590342  0.51522779     2.64680
O327        O  0.25529259  0.44105798  0.48246539    -0.98410
O328        O  0.23459584  0.30813539  0.45687311    -0.80470
O329        O  0.27439450  0.40570518  0.58562414    -0.83830
O330        O  0.30861392  0.39482121  0.53770821    -2.18540
O331        O  0.38901102  0.31461726  0.64708189    -0.67220
O332        O  0.38313351  0.31352346  0.57040308    -0.51790
C333        C  0.39766016  0.31352526  0.61074307     0.71550
O334        O  0.24623066  0.21497301  0.60137175    -0.60130
O335        O  0.24869887  0.27383772  0.65983750    -0.52110
C336        C  0.23589150  0.23978264  0.63054116     0.73350
O337        O  0.31639389  0.17227231  0.54843244    -0.71520
O338        O  0.34653611  0.22394279  0.52729121    -0.50200
C339        C  0.33625854  0.17782888  0.53296782     0.74730
O340        O  0.33221950  0.31251207  0.73754886    -0.66850
O341        O  0.28937466  0.33263032  0.72316151    -0.54050
C342        C  0.31128933  0.32101586  0.74980984     0.73120
Zr343      Zr  0.34632170  0.31390070  0.66831760     2.77540
O344        O  0.36439319  0.23036069  0.69791834    -0.97600
O345        O  0.37664638  0.36560299  0.72812793    -0.78420
Zr346      Zr  0.28953113  0.22669830  0.58249587     2.70070
O347        O  0.29951173  0.15695262  0.63663056    -0.79670
O348        O  0.26268787  0.16822956  0.52306064    -0.98750
Zr349      Zr  0.27315839  0.34543939  0.64260729     2.21500
Zr350      Zr  0.33779899  0.32266555  0.54287438     2.11130
O351        O  0.33314186  0.26363863  0.60018250    -2.47440
O352        O  0.30328269  0.27533664  0.65230089    -0.79460
O353        O  0.34752612  0.37469843  0.61269212    -0.71660
O354        O  0.26211398  0.29876538  0.57087517    -2.32620
O355        O  0.31572928  0.38278440  0.66573460    -2.28820
O356        O  0.29533280  0.28263211  0.52354354    -0.73420
H357        H  0.30974804  0.41809421  0.51396656     0.78580
H358        H  0.24436060  0.28709209  0.56064711     0.79670
H359        H  0.34570230  0.23588702  0.60472888     0.81890
H360        H  0.31890169  0.40172722  0.69486945     0.79500
H361        H  0.23502045  0.27137465  0.46719982     0.42530
H362        H  0.26830843  0.17534228  0.49532186     0.41500
H363        H  0.31862997  0.15652295  0.64590310     0.41180
H364        H  0.37754381  0.22151913  0.68119365     0.39110
H365        H  0.38055929  0.39761670  0.71321057     0.42250
H366        H  0.34823520  0.48229429  0.69465118     0.37030
H367        H  0.29155373  0.51159683  0.54079104     0.42670
H368        H  0.26309990  0.44217653  0.45638459     0.39560
H369        H  0.37453825  0.23996854  0.72921690     0.44480
H370        H  0.34604115  0.52859499  0.66134821     0.43200
H371        H  0.23649337  0.43699006  0.46869724     0.43340
H372        H  0.26863000  0.13189565  0.53080260     0.43700
O373        O  0.04182580  0.99137372  0.15470698    -0.75170
O374        O  0.07076532  0.97175223  0.21967931    -0.54080
C375        C  0.05876155  0.96101621  0.17771137     0.78560
O376        O  0.13695748  0.16125650  0.16207050    -0.59770
O377        O  0.11620237  0.24063328  0.15567198    -0.52800
C378        C  0.13554977  0.21003776  0.15299548     0.70570
O379        O  0.13512053  0.02956388  0.24793191    -0.74330
O380        O  0.10957947  0.00341148  0.29302893    -0.54890
C381        C  0.12944795  0.99920470  0.27684488     0.76570
O382        O  0.04971070  0.12941983  0.07214434    -0.59470
O383        O  0.06280369  0.21586122  0.08808947    -0.52590
C384        C  0.05574953  0.17521227  0.06037534     0.73170
Zr385      Zr  0.04710112  0.08325979  0.13950280     2.54710
O386        O  0.04689261  0.02670073  0.07288216    -0.80040
O387        O  0.00073760  0.09094123  0.10877914    -0.93460
Zr388      Zr  0.11986094  0.11146293  0.21206072     2.64680
O389        O  0.13625722  0.05001485  0.16258096    -0.98410
O390        O  0.16266604  0.13965558  0.25700512    -0.80470
O391        O  0.08307440  0.05671089  0.19723691    -0.83830
O392        O  0.08485749  0.13698459  0.15218544    -2.18540
O393        O  0.00511102  0.23928946  0.19553413    -0.67220
O394        O  0.03013655  0.27393354  0.15249644    -0.51790
C395        C  0.00946875  0.27256602  0.16791085     0.71550
O396        O  0.08473100  0.15963001  0.36055108    -0.60130
O397        O  0.07585082  0.07096610  0.35002292    -0.52110
C398        C  0.07911939  0.11497070  0.37471047     0.73350
O399        O  0.08872937  0.29442995  0.28244913    -0.71520
O400        O  0.07892055  0.31189693  0.20738476    -0.50200
C401        C  0.08225514  0.32599462  0.24954770     0.74730
O402        O  0.00935385  0.10333358  0.28318595    -0.66850
O403        O  0.03335049  0.02861406  0.28941091    -0.54050
C404        C  0.01497377  0.05670707  0.29784503     0.73120
Zr405      Zr  0.02280229  0.16100068  0.23082756     2.77540
O406        O  0.00769113  0.21415454  0.28727717    -0.97600
O407        O  0.47926016  0.13261691  0.18958473    -0.78420
Zr408      Zr  0.09488533  0.20063830  0.29693404     2.70070
O409        O  0.10226314  0.25885886  0.36502773    -0.79670
O410        O  0.14176397  0.20383330  0.32415622    -0.98750
Zr411      Zr  0.07146788  0.05488265  0.26734600     2.21500
Zr412      Zr  0.07205270  0.22405227  0.17063639     2.11130
O413        O  0.05793536  0.22120398  0.23929181    -2.47440
O414        O  0.05947196  0.14099057  0.28743644    -0.79460
O415        O  0.03464700  0.16696738  0.16079429    -0.71660
O416        O  0.10809716  0.11402536  0.28155043    -2.32620
O417        O  0.03443058  0.07643668  0.20825947    -2.28820
O418        O  0.10865072  0.19995239  0.22957957    -0.73420
H419        H  0.09131331  0.13629574  0.12540915     0.78580
H420        H  0.12196178  0.10335575  0.30640605     0.79670
H421        H  0.05013696  0.25382608  0.24601189     0.81890
H422        H  0.02036700  0.05109149  0.20482416     0.79500
H423        H  0.16625229  0.11694047  0.28348017     0.42530
H424        H  0.14639134  0.24211077  0.32603653     0.41500
H425        H  0.08478085  0.26846302  0.36770764     0.41180
H426        H  0.01704435  0.24864693  0.29006726     0.39110
H427        H  0.47475903  0.15513359  0.16301236     0.42250
H428        H  0.99291912  0.06893294  0.12800925     0.37030
H429        H  0.06384590  0.03345861  0.06648404     0.43150
H430        H  0.12691563  0.05857024  0.13138063     0.39560
H431        H  0.48949799  0.22211003  0.27231464     0.44480
H432        H  0.99702332  0.07108930  0.07905413     0.43200
H433        H  0.15433098  0.06180042  0.16564365     0.43340
H434        H  0.14525202  0.19379225  0.35613312     0.43700
O435        O  0.08413117  0.01874867  0.70093020    -0.75170
O436        O  0.06791625  0.99420020  0.75616748    -0.54080
C437        C  0.07452636  0.98268757  0.71946717     0.78560
O438        O  0.13809934  0.18284677  0.67926771    -0.59770
O439        O  0.10877621  0.23669267  0.63491530    -0.52800
C440        C  0.13175805  0.21668843  0.64859265     0.70570
O441        O  0.13438822  0.06696884  0.77671378    -0.74330
O442        O  0.10531695  0.04414909  0.81562843    -0.54890
C443        C  0.12724193  0.04057127  0.80644974     0.76570
O444        O  0.05915418  0.09871857  0.57583713    -0.59470
O445        O  0.06041444  0.18851390  0.57333358    -0.52590
C446        C  0.06048158  0.14139145  0.55500444     0.73170
Zr447      Zr  0.05491216  0.07460940  0.65008204     2.54710
O448        O  0.06096723  0.99640012  0.60513250    -0.80040
O449        O  0.00922593  0.06036402  0.61438302    -0.93460
Zr450      Zr  0.11752777  0.13844357  0.72828719     2.64680
O451        O  0.13198043  0.05797648  0.69550358    -0.98410
O452        O  0.15491120  0.18984662  0.77203705    -0.80470
O453        O  0.07297197  0.12627265  0.71735187    -0.83830
O454        O  0.08821999  0.13729115  0.65510593    -2.18540
O455        O  0.99585544  0.22861422  0.66047229    -0.67220
O456        O  0.02362118  0.26580492  0.62393331    -0.51790
C457        C  0.00149871  0.26210268  0.63426772     0.71550
O458        O  0.07521077  0.21007156  0.86038474    -0.60130
O459        O  0.06608139  0.12146331  0.85764785    -0.52110
C460        C  0.06964195  0.16767683  0.87818358     0.73350
O461        O  0.09274610  0.29363306  0.73608285    -0.71520
O462        O  0.06892283  0.31304199  0.66874500    -0.50200
C463        C  0.07883005  0.32659652  0.71019623     0.74730
O464        O  0.49557484  0.11423984  0.76268246    -0.66850
O465        O  0.02718540  0.06351065  0.80416152    -0.54050
C466        C  0.50395257  0.08039568  0.79306552     0.73120
Zr467      Zr  0.01411810  0.16099671  0.70952963     2.77540
O468        O  0.98810330  0.21927899  0.74536171    -0.97600
O469        O  0.47553943  0.11663649  0.66183403    -0.78420
Zr470      Zr  0.07814410  0.23337716  0.78512254     2.70070
O471        O  0.05104987  0.30403040  0.80318847    -0.79670
O472        O  0.11524726  0.27336682  0.84068598    -0.98750
Zr473      Zr  0.06598651  0.08691607  0.78196899     2.21500
Zr474      Zr  0.06578910  0.21966694  0.65223807     2.11130
O475        O  0.04588435  0.22954291  0.71546263    -2.47440
O476        O  0.04494922  0.16813501  0.78062085    -0.79460
O477        O  0.03210559  0.15362991  0.64441187    -0.71660
O478        O  0.10023254  0.15081450  0.79249814    -2.32620
O479        O  0.03403536  0.07653138  0.71097051    -2.28820
O480        O  0.09847742  0.22211506  0.72404430    -0.73420
H481        H  0.09736254  0.13189756  0.63183302     0.78580
H482        H  0.11297540  0.14927743  0.82119997     0.79670
H483        H  0.03735412  0.26324776  0.71430718     0.81890
H484        H  0.02188533  0.04790871  0.71018464     0.79500
H485        H  0.15948995  0.17351442  0.80189836     0.42530
H486        H  0.12459790  0.29423939  0.82291881     0.41500
H487        H  0.03686254  0.28524874  0.81190251     0.41180
H488        H  0.99527193  0.25551472  0.74494036     0.39110
H489        H  0.47231714  0.13394596  0.63245394     0.42250
H490        H  0.50269923  0.03611296  0.63362402     0.37030
H491        H  0.07867203  0.00064086  0.60124197     0.43150
H492        H  0.12252084  0.05636174  0.66306656     0.39560
H493        H  0.47083951  0.21936520  0.72377003     0.44480
H494        H  0.00863681  0.04008236  0.58563636     0.43200
H495        H  0.15009313  0.06608835  0.69539802     0.43340
H496        H  0.10795035  0.30017913  0.85839029     0.43700
C497        C  0.07510569  0.11825970  0.42170871    -0.05350
C498        C  0.08086900  0.16706955  0.44709051    -0.32770
C499        C  0.07525497  0.17567937  0.48906195     0.36480
C500        C  0.06398291  0.13484692  0.50800462    -0.05700
C501        C  0.05849522  0.08552527  0.48328940    -0.32670
C502        C  0.06393713  0.07709642  0.44065465     0.36380
H503        H  0.08976645  0.19974751  0.43439055     0.16750
O504        O  0.08201508  0.22374885  0.51204578    -0.60170
H505        H  0.05001783  0.05310222  0.49710907     0.16770
O506        O  0.05782809  0.02890566  0.41773144    -0.60270
H507        H  0.07304375  0.00649822  0.42915208     0.43760
H508        H  0.06738952  0.24736811  0.49982954     0.43720
C509        C  0.05663328  0.17875143  0.01228970    -0.05350
C510        C  0.07433699  0.21377066  0.00091231    -0.32770
C511        C  0.07875001  0.21116931  0.95739710     0.36480
C512        C  0.06564572  0.17254630  0.92456331    -0.05700
C513        C  0.04736986  0.13889915  0.93552784    -0.32670
C514        C  0.04265977  0.14192886  0.97857332     0.36380
H515        H  0.08562742  0.24177935  0.02633264     0.16750
O516        O  0.09700140  0.24441298  0.94827012    -0.60170
H517        H  0.03652096  0.10995644  0.91048467     0.16770
O518        O  0.02406237  0.10906184  0.98715243    -0.60270
H519        H  0.03132159  0.07290473  0.98814099     0.43760
H520        H  0.08804963  0.27833561  0.94040663     0.43720
C521        C  0.42606737  0.31137902  0.61362510    -0.05350
C522        C  0.43429437  0.28808955  0.57675251    -0.32770
C523        C  0.46059934  0.28108061  0.57886525     0.36480
C524        C  0.47955900  0.29765878  0.61808629    -0.05700
C525        C  0.47150468  0.32706450  0.65244100    -0.32670
C526        C  0.44512469  0.33288480  0.65096803     0.36380
H527        H  0.42020597  0.27195893  0.54701898     0.16750
O528        O  0.46732503  0.25124918  0.54512298    -0.60170
H529        H  0.48568899  0.33940510  0.68346250     0.16770
O530        O  0.43829997  0.35844517  0.68668330    -0.60270
H531        H  0.43928580  0.33116572  0.70950046     0.43760
H532        H  0.47204452  0.27745153  0.52513359     0.43720
C533        C  0.20754121  0.23487245  0.62961184    -0.05350
C534        C  0.19761629  0.27125538  0.65738930    -0.32770
C535        C  0.17157462  0.27072697  0.65827263     0.36480
C536        C  0.15414127  0.23320039  0.63147144    -0.05700
C537        C  0.16343915  0.19812222  0.60204221    -0.32670
C538        C  0.18970584  0.19929716  0.60041670     0.36380
H539        H  0.21020808  0.30030477  0.67975561     0.16750
O540        O  0.16395122  0.30355185  0.68934314    -0.60170
H541        H  0.15064219  0.16739922  0.58233074     0.16770
O542        O  0.19769916  0.16462596  0.57110910    -0.60270
H543        H  0.20259763  0.13212802  0.58822233     0.43760
H544        H  0.15705451  0.33533349  0.67260124     0.43720
C545        C  0.31279113  0.31968704  0.79852671    -0.05350
C546        C  0.29630687  0.35218323  0.81622890    -0.32770
C547        C  0.29777081  0.35434004  0.86233868     0.36480
C548        C  0.31559515  0.32274262  0.89185187    -0.05700
C549        C  0.33249396  0.29080330  0.87453310    -0.32670
C550        C  0.33113436  0.28892167  0.82805364     0.36380
H551        H  0.28257006  0.37719824  0.79441810     0.16750
O552        O  0.28184445  0.38825253  0.87829545    -0.60170
H553        H  0.34627222  0.26634122  0.89680064     0.16770
O554        O  0.34755934  0.25645481  0.81188144    -0.60270
H555        H  0.33781695  0.22250201  0.80245552     0.43760
H556        H  0.29145533  0.42266805  0.88484375     0.43720
C557        C  0.30305794  0.33220669  0.29354361    -0.05350
C558        C  0.28415071  0.36065218  0.30860028    -0.32770
C559        C  0.28354186  0.36119738  0.35411075     0.36480
C560        C  0.30187228  0.33231548  0.38528808    -0.05700
C561        C  0.32023918  0.30253107  0.36976314    -0.32670
C562        C  0.32086648  0.30207364  0.32439561     0.36380
H563        H  0.27031973  0.38406578  0.28537424     0.16750
O564        O  0.26540913  0.39130223  0.36781966    -0.60170
H565        H  0.33425574  0.27937523  0.39288367     0.16770
O566        O  0.33904210  0.27204876  0.31069572    -0.60270
H567        H  0.33025067  0.23753391  0.29936132     0.43760
H568        H  0.27341885  0.42724619  0.37528061     0.43720
C569        C  0.43214064  0.32096147  0.13643576    -0.05350
C570        C  0.44907054  0.33884162  0.17765806    -0.32770
C571        C  0.47603745  0.33228499  0.18560281     0.36480
C572        C  0.48680626  0.30710731  0.15232705    -0.05700
C573        C  0.47023827  0.29416989  0.10975080    -0.32670
C574        C  0.44336633  0.30042658  0.10164946     0.36380
H575        H  0.44139269  0.35621348  0.20449131     0.16750
O576        O  0.49174997  0.34687982  0.22747898    -0.60170
H577        H  0.47774108  0.27334457  0.08412043     0.16770
O578        O  0.42821675  0.28293112  0.06013107    -0.60270
H579        H  0.42510176  0.24456284  0.06299441     0.43760
H580        H  0.48802123  0.32075582  0.24846105     0.43720
C581        C  0.21316533  0.22251672  0.13925128    -0.05350
C582        C  0.19253962  0.21325269  0.10035443    -0.32770
C583        C  0.16643816  0.21529922  0.10287234     0.36480
C584        C  0.16022798  0.22904088  0.14429725    -0.05700
C585        C  0.18090767  0.23847076  0.18286679    -0.32670
C586        C  0.20679197  0.23478963  0.18075629     0.36380
H587        H  0.19662324  0.20628190  0.06760227     0.16750
O588        O  0.14710482  0.20197604  0.06488753    -0.60170
H589        H  0.17694757  0.24576948  0.21571164     0.16770
O590        O  0.22599832  0.24576300  0.21952872    -0.60270
H591        H  0.23112392  0.21069945  0.23211441     0.43760
H592        H  0.14160192  0.23613896  0.05084629     0.43720
C593        C  0.03332016  0.88926518  0.60718563    -0.05350
C594        C  0.06010657  0.88119764  0.62107667    -0.32770
C595        C  0.07484474  0.90733152  0.66169133     0.36480
C596        C  0.06223789  0.93718686  0.69001041    -0.05700
C597        C  0.03549793  0.93849023  0.67816524    -0.32670
C598        C  0.02180899  0.91938219  0.63586230     0.36380
H599        H  0.06958516  0.85722928  0.60004308     0.16750
O600        O  0.10128219  0.90521986  0.67257184    -0.60170
H601        H  0.52523001  0.96104949  0.69880226     0.16770
O602        O  0.49672034  0.93291300  0.62128055    -0.60270
H603        H  0.49649378  0.95825653  0.59752594     0.43760
H604        H  0.10693181  0.93394889  0.65586398     0.43720
C605        C  0.50048707  0.03436051  0.32849341    -0.05350
C606        C  0.50860004  0.98584130  0.34740588    -0.32770
C607        C  0.49842040  0.96563245  0.38077244     0.36480
C608        C  0.47865922  0.99270947  0.39525388    -0.05700
C609        C  0.46956569  0.04032449  0.37535204    -0.32670
C610        C  0.48048143  0.06154148  0.34238829     0.36380
H611        H  0.52367087  0.96354183  0.33748943     0.16750
O612        O  0.50756352  0.91806980  0.39796724    -0.60170
H613        H  0.45432473  0.06142810  0.38580452     0.16770
O614        O  0.47174737  0.10909550  0.32481193    -0.60270
H615        H  0.45743179  0.09962298  0.29779250     0.43760
H616        H  0.52405763  0.92698142  0.42072153     0.43720
C617        C  0.37763451  0.62494074  0.53470078    -0.05350
C618        C  0.39388835  0.58991593  0.56358141    -0.32770
C619        C  0.38962484  0.53436916  0.56022747     0.36480
C620        C  0.36841747  0.51066265  0.52777637    -0.05700
C621        C  0.35240179  0.54550396  0.49798014    -0.32670
C622        C  0.35706329  0.60144045  0.50071918     0.36380
H623        H  0.41062786  0.60592831  0.58877617     0.16750
O624        O  0.40503779  0.50387116  0.59205279    -0.60170
H625        H  0.33513890  0.52955757  0.47410485     0.16770
O626        O  0.34178670  0.63238976  0.46915606    -0.60270
H627        H  0.32797346  0.64512772  0.48313803     0.43760
H628        H  0.41833716  0.48964989  0.57748452     0.43720
C629        C  0.35556091  0.01102317  0.52700908    -0.05350
C630        C  0.36961887  0.04595815  0.56214090    -0.32770
C631        C  0.36550816  0.10163970  0.56196608     0.36480
C632        C  0.34756611  0.12469097  0.52563741    -0.05700
C633        C  0.33319298  0.08957452  0.49116050    -0.32670
C634        C  0.33727331  0.03419832  0.49124192     0.36380
H635        H  0.38466257  0.03034221  0.58902956     0.16750
O636        O  0.37886526  0.13325366  0.59815668    -0.60170
H637        H  0.31804395  0.10509236  0.46437195     0.16770
O638        O  0.32341554  0.00263196  0.45541468    -0.60270
H639        H  0.33178694  0.00788419  0.43036982     0.43760
H640        H  0.36831907  0.13279067  0.62058446     0.43720
C641        C  0.41740284  0.82426684  0.79063950    -0.05350
C642        C  0.43439707  0.79500164  0.77156140    -0.32770
C643        C  0.43128629  0.79214936  0.72456165     0.36480
C644        C  0.41106938  0.81947315  0.69556945    -0.05700
C645        C  0.39346493  0.84728730  0.71447384    -0.32670
C646        C  0.39650125  0.84977591  0.76165353     0.36380
H647        H  0.45005468  0.77390722  0.79312253     0.16750
O648        O  0.44812149  0.76230347  0.70696665    -0.60170
H649        H  0.37821612  0.86943987  0.69300269     0.16770
O650        O  0.37944307  0.87881838  0.77924392    -0.60270
H651        H  0.38773930  0.91442838  0.78738292     0.43760
H652        H  0.46484695  0.78213258  0.71591122     0.43720
C653        C  0.43130817  0.84919894  0.20740162    -0.05350
C654        C  0.43583820  0.89534167  0.23590807    -0.32770
C655        C  0.44221070  0.89241340  0.28352126     0.36480
C656        C  0.44529596  0.84267057  0.30347496    -0.05700
C657        C  0.44121093  0.79652614  0.27471070    -0.32670
C658        C  0.43422197  0.79949966  0.22723954     0.36380
H659        H  0.43376863  0.93390353  0.22113641     0.16750
O660        O  0.44290929  0.93791290  0.31016099    -0.60170
H661        H  0.44234961  0.75785617  0.28921569     0.16770
O662        O  0.43090543  0.75353942  0.20050475    -0.60270
H663        H  0.41237290  0.74371473  0.19525285     0.43760
H664        H  0.45421686  0.96337063  0.29998418     0.43720
C665        C  0.04061772  0.86707298  0.06663260    -0.05350
C666        C  0.04137280  0.84040796  0.10668991    -0.32770
C667        C  0.05200414  0.86650147  0.14919170     0.36480
C668        C  0.06524109  0.91508422  0.15093369    -0.05700
C669        C  0.07293280  0.92848182  0.11180498    -0.32670
C670        C  0.05987883  0.90581745  0.06909506     0.36380
H671        H  0.52895274  0.80604411  0.10514328     0.16750
O672        O  0.04660282  0.84791579  0.18745553    -0.60170
H673        H  0.08486614  0.96368052  0.11309434     0.16770
O674        O  0.06222887  0.92900996  0.03050999    -0.60270
H675        H  0.07299056  0.90446621  0.01714883     0.43760
H676        H  0.53236364  0.86997042  0.19296531     0.43720
C677        C  0.45963590  0.00283740  0.87053924    -0.05350
C678        C  0.46624948  0.05683786  0.88029372    -0.32770
C679        C  0.47917364  0.08431103  0.85308588     0.36480
C680        C  0.48569614  0.05742969  0.81614458    -0.05700
C681        C  0.47733777  0.00490188  0.80455154    -0.32670
C682        C  0.46437558  0.97764698  0.83128601     0.36380
H683        H  0.46298947  0.07661131  0.91054065     0.16750
O684        O  0.48708311  0.13597206  0.86488434    -0.60170
H685        H  0.48199174  0.98407400  0.77587789     0.16770
O686        O  0.45710762  0.92557918  0.81966699    -0.60270
H687        H  0.47325109  0.90512874  0.82830026     0.43760
H688        H  0.47321514  0.15770095  0.84664566     0.43720
C689        C  0.38465148  0.62846509  0.05042768    -0.05350
C690        C  0.39868842  0.59257725  0.08147786    -0.32770
C691        C  0.39392260  0.53688832  0.07625120     0.36480
C692        C  0.37516581  0.51416067  0.03864773    -0.05700
C693        C  0.36207597  0.55003046  0.00640663    -0.32670
C694        C  0.36658930  0.60579284  0.01197215     0.36380
H695        H  0.41379828  0.60795957  0.11007879     0.16750
O696        O  0.40626627  0.50539538  0.11036005    -0.60170
H697        H  0.34668136  0.53491719  0.97813767     0.16770
O698        O  0.35378677  0.63765129  0.97851800    -0.60270
H699        H  0.33833111  0.64971628  0.98818581     0.43760
H700        H  0.42130513  0.49116371  0.10055268     0.43720
C701        C  0.36508656  0.01825875  0.06007695    -0.05350
C702        C  0.38376776  0.06009802  0.06820892    -0.32770
C703        C  0.37689689  0.11421815  0.06297454     0.36480
C704        C  0.35068989  0.12850520  0.04949579    -0.05700
C705        C  0.33211069  0.08663341  0.04402648    -0.32670
C706        C  0.33902500  0.03284619  0.04921723     0.36380
H707        H  0.40401005  0.05042455  0.07561974     0.16750
O708        O  0.39605578  0.15219347  0.06884200    -0.60170
H709        H  0.31175505  0.09507154  0.03379286     0.16770
O710        O  0.31996034  0.99433877  0.03946579    -0.60270
H711        H  0.31678183  0.98639981  0.06916184     0.43760
H712        H  0.40017707  0.16330006  0.10149484     0.43720
C713        C  0.18332115  0.43955138  0.92190339    -0.05350
C714        C  0.17052791  0.39985415  0.93934307    -0.32770
C715        C  0.18145705  0.38055659  0.98231347     0.36480
C716        C  0.20431645  0.40405984  0.01003051    -0.05700
C717        C  0.21596202  0.44610719  0.99360144    -0.32670
C718        C  0.20676138  0.46096150  0.94886998     0.36380
H719        H  0.15177037  0.38479029  0.92001385     0.16750
O720        O  0.16993038  0.33837143  0.99692650    -0.60170
H721        H  0.23412191  0.46325184  0.01369503     0.16770
O722        O  0.22010164  0.49911325  0.93277393    -0.60270
H723        H  0.22668746  0.48083311  0.90864034     0.43760
H724        H  0.17578455  0.30635646  0.98257292     0.43720
C725        C  0.26700616  0.51207448  0.70972803    -0.05350
C726        C  0.24209960  0.52995193  0.69136679    -0.32770
C727        C  0.22673250  0.54684045  0.71959443     0.36480
C728        C  0.23665588  0.54816107  0.76699156    -0.05700
C729        C  0.26252798  0.53509596  0.78541329    -0.32670
C730        C  0.27762067  0.51609234  0.75693335     0.36380
H731        H  0.23377326  0.52650099  0.65510791     0.16750
O732        O  0.20188756  0.56142733  0.70050898    -0.60170
H733        H  0.27049262  0.53669839  0.82184042     0.16770
O734        O  0.30172346  0.49697667  0.77560765    -0.60270
H735        H  0.31387874  0.52632261  0.77416903     0.43760
H736        H  0.19193175  0.52759626  0.69176266     0.43720
C737        C  0.30451037  0.80190764  0.96395256    -0.05350
C738        C  0.29221466  0.78968975  0.99833287    -0.32770
C739        C  0.26500528  0.78524299  0.98943453     0.36480
C740        C  0.24941047  0.79362739  0.94570767    -0.05700
C741        C  0.26168287  0.80941944  0.91246126    -0.32670
C742        C  0.28867344  0.81289748  0.92091931     0.36380
H743        H  0.30376326  0.78154048  0.03191782     0.16750
O744        O  0.25411914  0.76854007  0.02266087    -0.60170
H745        H  0.25023034  0.81639268  0.87850318     0.16770
O746        O  0.29927727  0.82745175  0.88665952    -0.60270
H747        H  0.29892310  0.79464486  0.86732429     0.43760
H748        H  0.25005069  0.80158164  0.03808367     0.43720
C749        C  0.07800197  0.73984943  0.96035790    -0.05350
C750        C  0.06572769  0.69789191  0.97676189    -0.32770
C751        C  0.04054535  0.70242816  0.98212370     0.36480
C752        C  0.02665126  0.74841744  0.96877854    -0.05700
C753        C  0.03946441  0.79135568  0.95479092    -0.32670
C754        C  0.06495957  0.78761546  0.95125121     0.36380
H755        H  0.07510170  0.65991434  0.98237573     0.16750
O756        O  0.02889617  0.65979350  0.99578298    -0.60170
H757        H  0.02932858  0.82752987  0.94440181     0.16770
O758        O  0.07591393  0.82887541  0.93435769    -0.60270
H759        H  0.06999697  0.82367336  0.90088703     0.43760
H760        H  0.03334911  0.66385052  0.02935652     0.43720
C761        C  0.07947793  0.48303212  0.76610389    -0.05350
C762        C  0.06935261  0.47433983  0.71934639    -0.32770
C763        C  0.06681843  0.42257198  0.70023361     0.36480
C764        C  0.07536413  0.37992708  0.72838042    -0.05700
C765        C  0.08251539  0.38905604  0.77550873    -0.32670
C766        C  0.08394028  0.44011391  0.79455808     0.36380
H767        H  0.06616921  0.50756277  0.69733402     0.16750
O768        O  0.05816443  0.41473337  0.65406648    -0.60170
H769        H  0.08897218  0.35712192  0.79782750     0.16770
O770        O  0.09353470  0.44823622  0.84063638    -0.60270
H771        H  0.11230826  0.44137007  0.84673573     0.43760
H772        H  0.07354909  0.42038002  0.64219815     0.43720
C773        C  0.16005094  0.89720619  0.85234167    -0.05350
C774        C  0.14982160  0.92947697  0.88188671    -0.32770
C775        C  0.14158691  0.98026965  0.87001292     0.36480
C776        C  0.14417186  0.99929978  0.82868561    -0.05700
C777        C  0.15848231  0.97072302  0.80340162    -0.32670
C778        C  0.16620177  0.91943667  0.81468298     0.36380
H779        H  0.14576949  0.91379058  0.91191623     0.16750
O780        O  0.12948772  0.00960107  0.89731357    -0.60170
H781        H  0.16119180  0.98550039  0.77206320     0.16770
O782        O  0.17834124  0.89041689  0.78728325    -0.60270
H783        H  0.16470255  0.88077472  0.75927846     0.43760
H784        H  0.11230974  0.99223959  0.89334670     0.43720
C785        C  0.15393422  0.61025394  0.56508722    -0.05350
C786        C  0.14127043  0.56948054  0.58189282    -0.32770
C787        C  0.14045475  0.57067407  0.62791579     0.36480
C788        C  0.15148191  0.61416358  0.65740723    -0.05700
C789        C  0.16368513  0.65486800  0.64009682    -0.32670
C790        C  0.16519734  0.65304772  0.59509802     0.36380
H791        H  0.13228984  0.53632858  0.55955554     0.16750
O792        O  0.12810221  0.53025508  0.64315150    -0.60170
H793        H  0.17255490  0.68859506  0.66184833     0.16770
O794        O  0.17686558  0.69492943  0.58036441    -0.60270
H795        H  0.19568539  0.68933633  0.59179026     0.43760
H796        H  0.14105310  0.50189587  0.65047410     0.43720
C797        C  0.15898168  0.69037216  0.07052335    -0.05350
C798        C  0.18195795  0.68504509  0.10408163    -0.32770
C799        C  0.18147816  0.67874901  0.14924094     0.36480
C800        C  0.15760833  0.67728757  0.16117071    -0.05700
C801        C  0.13474730  0.68497968  0.12762858    -0.32670
C802        C  0.13541969  0.69202707  0.08272696     0.36380
H803        H  0.20023167  0.68322566  0.09491991     0.16750
O804        O  0.20434907  0.67206341  0.18105871    -0.60170
H805        H  0.11628134  0.68513715  0.13612903     0.16770
O806        O  0.11284817  0.69911679  0.05070375    -0.60270
H807        H  0.10971576  0.73779421  0.05249140     0.43760
H808        H  0.21023576  0.63625917  0.17398365     0.43720
C809        C  0.16132289  0.43645166  0.47540128    -0.05350
C810        C  0.16838831  0.46155232  0.51884047    -0.32770
C811        C  0.18164826  0.43390657  0.55619575     0.36480
C812        C  0.18821179  0.38100331  0.54947622    -0.05700
C813        C  0.17512557  0.35308861  0.50884276    -0.32670
C814        C  0.16293655  0.38119183  0.47083935     0.36380
H815        H  0.16663356  0.50400844  0.52287568     0.16750
O816        O  0.19263987  0.46148322  0.59630059    -0.60170
H817        H  0.17936251  0.31164862  0.50359378     0.16770
O818        O  0.15526837  0.35534996  0.42901322    -0.60270
H819        H  0.13656330  0.34771777  0.42448604     0.43760
H820        H  0.20775937  0.48063765  0.59093454     0.43720
C821        C  0.25744590  0.52046584  0.18556126    -0.05350
C822        C  0.23054019  0.51508194  0.17740264    -0.32770
C823        C  0.21790563  0.53480258  0.20899586     0.36480
C824        C  0.23200495  0.56237194  0.24854527    -0.05700
C825        C  0.25848346  0.57296673  0.25470098    -0.32670
C826        C  0.27141357  0.55125465  0.22359124     0.36380
H827        H  0.21958320  0.49142451  0.14822004     0.16750
O828        O  0.19173307  0.52655020  0.20122653    -0.60170
H829        H  0.26931905  0.59510815  0.28484463     0.16770
O830        O  0.29775536  0.55676834  0.23240250    -0.60270
H831        H  0.30476431  0.52664413  0.25135915     0.43760
H832        H  0.18968220  0.49062804  0.21203543     0.43720
C833        C  0.26372653  0.74014470  0.40819303    -0.05350
C834        C  0.28116141  0.71441293  0.38753831    -0.32770
C835        C  0.30625202  0.73393294  0.39504426     0.36480
C836        C  0.31373344  0.77978810  0.42324513    -0.05700
C837        C  0.29567627  0.80722378  0.44158351    -0.32670
C838        C  0.27069940  0.78720170  0.43449702     0.36380
H839        H  0.27549201  0.67816560  0.36678321     0.16750
O840        O  0.32377359  0.70550438  0.37812078    -0.60170
H841        H  0.30128701  0.84300729  0.46297151     0.16770
O842        O  0.25318713  0.81402876  0.45264882    -0.60270
H843        H  0.25556738  0.80063901  0.48349621     0.43760
H844        H  0.32199207  0.71819379  0.34718782     0.43720
C845        C  0.02584792  0.71165319  0.48186479    -0.05350
C846        C  0.02361211  0.66631307  0.45321833    -0.32770
C847        C  0.04399500  0.65251024  0.43476865     0.36480
C848        C  0.06651878  0.68480511  0.44516249    -0.05700
C849        C  0.06952776  0.72720178  0.47711185    -0.32670
C850        C  0.04934424  0.74037419  0.49601428     0.36380
H851        H  0.00532911  0.64484783  0.44170819     0.16750
O852        O  0.04079423  0.61083335  0.40326234    -0.60170
H853        H  0.08722859  0.75088421  0.48641119     0.16770
O854        O  0.05177760  0.78443856  0.52485901    -0.60270
H855        H  0.05486107  0.77039055  0.55559370     0.43760
H856        H  0.04460801  0.57863485  0.42117890     0.43720
C857        C  0.07540938  0.38021476  0.26201692    -0.05350
C858        C  0.07028160  0.38944255  0.30475325    -0.32770
C859        C  0.06583534  0.44037660  0.31999457     0.36480
C860        C  0.06737943  0.48342523  0.29303894    -0.05700
C861        C  0.06717568  0.47302622  0.24724858    -0.32670
C862        C  0.07190077  0.42189141  0.23189589     0.36380
H863        H  0.07065283  0.35743434  0.32745102     0.16750
O864        O  0.06321594  0.44827790  0.36336756    -0.60170
H865        H  0.06678583  0.50538555  0.22491625     0.16770
O866        O  0.07449804  0.41404533  0.18851555    -0.60270
H867        H  0.09319542  0.41919436  0.19093300     0.43760
H868        H  0.04445967  0.45314995  0.35991449     0.43720
C869        C  0.14629538  0.95469360  0.29060854    -0.05350
C870        C  0.15761764  0.94826919  0.33662564    -0.32770
C871        C  0.16975439  0.90095788  0.35067790     0.36480
C872        C  0.16982754  0.85922565  0.31843127    -0.05700
C873        C  0.16078710  0.86798223  0.27205526    -0.32670
C874        C  0.14892230  0.91551150  0.25800555     0.36380
H875        H  0.15594843  0.97889655  0.36171961     0.16750
O876        O  0.17947145  0.89416168  0.39616639    -0.60170
H877        H  0.16037646  0.83606167  0.24689002     0.16770
O878        O  0.13713563  0.92063550  0.21291902    -0.60270
H879        H  0.15058627  0.93616766  0.19994212     0.43760
H880        H  0.19839008  0.89996373  0.40182505     0.43720
O881        O  0.66339813  0.79312332  0.36614797    -0.75170
O882        O  0.68013925  0.76913349  0.30765544    -0.54080
C883        C  0.67206782  0.80425698  0.33213808     0.78560
O884        O  0.67581896  0.63151408  0.50943899    -0.59770
O885        O  0.63663011  0.58919562  0.48539898    -0.52800
C886        C  0.65555704  0.60951054  0.51688442     0.70570
O887        O  0.73004431  0.70313353  0.43371547    -0.74330
O888        O  0.72588892  0.71318150  0.35812944    -0.54890
C889        C  0.73806249  0.71810496  0.39978480     0.76570
O890        O  0.59888744  0.71270364  0.41119531    -0.59470
O891        O  0.59262285  0.62481526  0.42056620    -0.52590
C892        C  0.58726298  0.67359112  0.42400380     0.73170
Zr893      Zr  0.63121887  0.72596906  0.36847591     2.54710
O894        O  0.62235982  0.80723192  0.40748425    -0.80040
O895        O  0.59976398  0.76601277  0.30726828    -0.93460
Zr896      Zr  0.69241606  0.65644255  0.44542300     2.64680
O897        O  0.70072990  0.73512608  0.49644322    -0.98410
O898        O  0.72786039  0.60965198  0.49375291    -0.80470
O899        O  0.67658258  0.71524248  0.38714267    -0.83830
O900        O  0.64714708  0.66940203  0.42844030    -2.18540
O901        O  0.58189504  0.57148746  0.28990489    -0.67220
O902        O  0.59192090  0.53235623  0.35728530    -0.51790
C903        C  0.57967503  0.53347776  0.31523433     0.71550
O904        O  0.70814639  0.54236642  0.30074792    -0.60130
O905        O  0.71606672  0.62911344  0.28918230    -0.52110
C906        C  0.71852183  0.57914587  0.28269125     0.73350
O907        O  0.67341077  0.47664703  0.41470481    -0.71520
O908        O  0.63550672  0.49830926  0.43162047    -0.50200
C909        C  0.65581446  0.47061521  0.43656247     0.74730
O910        O  0.63621786  0.64220534  0.21360397    -0.66850
O911        O  0.67576288  0.68209322  0.24011959    -0.54050
C912        C  0.65637685  0.66663430  0.20792521     0.73120
Zr913      Zr  0.62159478  0.60602823  0.27674989     2.77540
O914        O  0.62055243  0.52810006  0.22628318    -0.97600
O915        O  0.58459612  0.64081249  0.22238873    -0.78420
Zr916      Zr  0.68198097  0.53327776  0.35532082     2.70070
O917        O  0.66815342  0.45031954  0.31171752    -0.79670
O918        O  0.72403910  0.49425427  0.38382086    -0.98750
Zr919      Zr  0.68528497  0.67573253  0.32069032     2.21500
Zr920      Zr  0.62816995  0.58442924  0.40237068     2.11130
O921        O  0.63690707  0.54472985  0.33524495    -2.47440
O922        O  0.66632722  0.59136603  0.29549286    -0.79460
O923        O  0.61115134  0.64267015  0.34300585    -0.71660
O924        O  0.70240471  0.61702941  0.37981057    -2.32620
O925        O  0.64012588  0.69114365  0.30068829    -2.28820
O926        O  0.67339100  0.57190309  0.42176516    -0.73420
H927        H  0.64231137  0.68332553  0.45502736     0.78580
H928        H  0.72082901  0.61330856  0.38441446     0.79670
H929        H  0.62892689  0.51001633  0.32716109     0.81890
H930        H  0.63540035  0.71596464  0.27684506     0.79500
H931        H  0.73723951  0.59340835  0.47261024     0.42530
H932        H  0.73015795  0.50988072  0.41507955     0.41500
H933        H  0.66521667  0.45985036  0.27968883     0.41180
H934        H  0.61761969  0.49757785  0.24376263     0.39110
H935        H  0.58263520  0.67713386  0.23464084     0.42250
H936        H  0.58536244  0.77601153  0.32071366     0.37030
H937        H  0.63499241  0.80756650  0.43749482     0.43150
H938        H  0.68391271  0.74289615  0.50304212     0.39560
H939        H  0.60440589  0.53097837  0.20207216     0.44480
H940        H  0.60788567  0.80028386  0.30327737     0.43200
H941        H  0.71171873  0.72264150  0.52520887     0.43340
H942        H  0.72016862  0.45651182  0.38755569     0.43700
O943        O  0.59313987  0.68511528  0.91150050    -0.75170
O944        O  0.61975190  0.75494970  0.94393132    -0.54080
C945        C  0.59877664  0.72629745  0.93815479     0.78560
O946        O  0.65224213  0.50178451  0.90626114    -0.59770
O947        O  0.67341035  0.48763662  0.85291231    -0.52800
C948        C  0.66775709  0.47503585  0.88981496     0.70570
O949        O  0.65463533  0.63775547  0.00401178    -0.74330
O950        O  0.66536013  0.72530116  0.00314450    -0.54890
C951        C  0.65953703  0.68462945  0.02277559     0.76570
O952        O  0.58735125  0.56824042  0.80175899    -0.59470
O953        O  0.61947323  0.52221885  0.78048478    -0.52590
C954        C  0.59601175  0.52887630  0.78222455     0.73170
Zr955      Zr  0.60603281  0.64717744  0.84796835     2.54710
O956        O  0.56522770  0.61295123  0.85777605    -0.80040
O957        O  0.57774959  0.70450574  0.79578864    -0.93460
Zr958      Zr  0.66472604  0.58882493  0.94011177     2.64680
O959        O  0.65209865  0.53205774  0.99388746    -0.98410
O960        O  0.70643523  0.57019710  0.99085458    -0.80470
O961        O  0.63533727  0.65754036  0.92105290    -0.83830
O962        O  0.63422366  0.57658703  0.86745345    -2.18540
O963        O  0.65117170  0.66778903  0.72244756    -0.67220
O964        O  0.65247714  0.57809222  0.73000716    -0.51790
C965        C  0.65120173  0.61970577  0.70626158     0.71550
O966        O  0.71545112  0.75286721  0.89016933    -0.60130
O967        O  0.70533995  0.77479212  0.95424463    -0.52110
C968        C  0.72191023  0.77431016  0.92993866     0.73350
O969        O  0.72900490  0.60132852  0.82735915    -0.71520
O970        O  0.69700012  0.54499685  0.78705946    -0.50200
C971        C  0.72004702  0.56484767  0.79647127     0.74730
O972        O  0.65933000  0.81024661  0.82127766    -0.66850
O973        O  0.65909102  0.82281455  0.89575655    -0.54050
C974        C  0.66005893  0.83967732  0.85713339     0.73120
Zr975      Zr  0.65323806  0.71819338  0.79344565     2.77540
O976        O  0.67921079  0.76575918  0.75239349    -0.97600
O977        O  0.61368088  0.75328058  0.74620559    -0.78420
Zr978      Zr  0.71302376  0.65777569  0.88107937     2.70070
O979        O  0.75579260  0.68479895  0.87518956    -0.79670
O980        O  0.74353945  0.63082447  0.94988849    -0.98750
Zr981      Zr  0.66098133  0.73526346  0.92299632     2.21500
Zr982      Zr  0.65913050  0.56934626  0.81206453     2.11130
O983        O  0.68311056  0.64836425  0.80924978    -2.47440
O984        O  0.68332794  0.72766405  0.86451448    -0.79460
O985        O  0.62905933  0.63936766  0.79199048    -0.71660
O986        O  0.69104051  0.66447343  0.94022930    -2.32620
O987        O  0.62996052  0.72685871  0.84995977    -2.28820
O988        O  0.68931132  0.57969194  0.88479079    -0.73420
H989        H  0.62198630  0.54784263  0.86563431     0.78580
H990        H  0.70292136  0.67131598  0.96960213     0.79670
H991        H  0.69167423  0.64730935  0.78498404     0.81890
H992        H  0.61873518  0.75706775  0.84530725     0.79500
H993        H  0.70481686  0.58194469  0.02138336     0.42530
H994        H  0.75552445  0.60689515  0.93904985     0.41500
H995        H  0.75251468  0.70571805  0.84763241     0.41180
H996        H  0.69167153  0.73945739  0.74615082     0.39110
H997        H  0.60555648  0.72282599  0.72586896     0.42250
H998        H  0.56562293  0.71854626  0.81295342     0.37030
H999        H  0.57022334  0.58578486  0.88076374     0.43150
H1000       H  0.63477159  0.51752022  0.97804824     0.39560
H1001       H  0.66734588  0.77152038  0.72238029     0.44480
H1002       H  0.56709509  0.67972476  0.77222026     0.43200
H1003       H  0.66368364  0.50126709  0.99666576     0.43340
H1004       H  0.75401517  0.66320301  0.96208486     0.43700
O1005       O  0.50114562  0.90437924  0.06323266    -0.75170
O1006       O  0.50444657  0.85879458  0.99950283    -0.54080
C1007       C  0.51417875  0.87825298  0.04031091     0.78560
O1008       O  0.91829916  0.68046968  0.04174168    -0.59770
O1009       O  0.88361998  0.72816660  0.05175290    -0.52800
C1010       C  0.89595410  0.68333660  0.04918923     0.70570
O1011       O  0.98903613  0.73523299  0.99823627    -0.74330
O1012       O  0.48593562  0.78095649  0.93528754    -0.54890
C1013       C  0.49873633  0.75300571  0.96682772     0.76570
O1014       O  0.94584068  0.87536826  0.14522013    -0.59470
O1015       O  0.90666055  0.83245130  0.13020498    -0.52590
C1016       C  0.92726066  0.85315604  0.15771141     0.73170
Zr1017     Zr  0.96056496  0.87881824  0.07615154     2.54710
O1018       O  0.99055951  0.83217294  0.13458723    -0.80040
O1019       O  0.97112769  0.96435799  0.11682260    -0.93460
Zr1020     Zr  0.94510709  0.73782152  0.01297834     2.64680
O1021       O  0.97226778  0.69213453  0.07607962    -0.98410
O1022       O  0.94023763  0.65877404  0.96245503    -0.80470
O1023       O  0.96970506  0.81558307  0.02290931    -0.83830
O1024       O  0.93575283  0.79944285  0.06864919    -2.18540
O1025       O  0.87460416  0.96873192  0.00218744    -0.67220
O1026       O  0.87710505  0.92228051  0.06526100    -0.51790
C1027       C  0.87231681  0.96567973  0.04238916     0.71550
O1028       O  0.89967667  0.81703742  0.85293218    -0.60130
O1029       O  0.94318901  0.83319503  0.86738303    -0.52110
C1030       C  0.92044047  0.82506639  0.84026514     0.73350
O1031       O  0.84425337  0.79859748  0.94000427    -0.71520
O1032       O  0.84621609  0.81391690  0.01508732    -0.50200
C1033       C  0.83347749  0.80443799  0.97361830     0.74730
O1034       O  0.93237464  0.98083010  0.91953092    -0.66850
O1035       O  0.96681412  0.92993003  0.91552884    -0.54050
C1036       C  0.95234905  0.96987138  0.90439324     0.73120
Zr1037     Zr  0.91125320  0.94434676  0.97591674     2.77540
O1038       O  0.88180662  0.99548861  0.91962529    -0.97600
O1039       O  0.92984441  0.02605566  0.01704287    -0.78420
Zr1040     Zr  0.88759906  0.80133876  0.92255465     2.70070
O1041       O  0.85184860  0.81257229  0.85628324    -0.79670
O1042       O  0.88219909  0.70671908  0.90252449    -0.98750
Zr1043     Zr  0.95914422  0.85077119  0.94997322     2.21500
Zr1044     Zr  0.89204026  0.82889267  0.04676637     2.11130
O1045       O  0.88276651  0.86986078  0.97434194    -2.47440
O1046       O  0.91527530  0.87626487  0.92406193    -0.79460
O1047       O  0.91820322  0.90724912  0.04923542    -0.71660
O1048       O  0.93181514  0.77370579  0.94082209    -2.32620
O1049       O  0.95400875  0.91819323  0.00402781    -2.28820
O1050       O  0.90075664  0.76421909  0.99339111    -0.73420
H1051       H  0.93907288  0.78197907  0.09703288     0.78580
H1052       H  0.93488582  0.74930053  0.91753144     0.79670
H1053       H  0.86531789  0.88250583  0.96581937     0.81890
H1054       H  0.96572368  0.94786784  0.00524163     0.79500
H1055       H  0.95598059  0.65834301  0.95104669     0.42530
H1056       H  0.86385237  0.69886168  0.90110488     0.41500
H1057       H  0.84845976  0.85113737  0.85681528     0.41180
H1058       H  0.86496439  0.97634162  0.91328540     0.39110
H1059       H  0.93983621  0.01464832  0.04693979     0.42250
H1060       H  0.98033326  0.98379820  0.09801130     0.37030
H1061       H  0.48692767  0.79349931  0.12598265     0.43150
H1062       H  0.96374935  0.69668271  0.10122364     0.39560
H1063       H  0.87928177  0.02906186  0.93592875     0.44480
H1064       H  0.98473475  0.95658496  0.14437243     0.43200
H1065       H  0.96989690  0.65394308  0.06672891     0.43340
H1066       H  0.88319608  0.70364046  0.87055427     0.43700
O1067       O  0.49794228  0.83233318  0.57757480    -0.75170
O1068       O  0.51202415  0.87554305  0.52675352    -0.54080
C1069       C  0.51500286  0.86198060  0.56793128     0.78560
O1070       O  0.91083851  0.67597727  0.52395021    -0.59770
O1071       O  0.87713538  0.72513140  0.53585602    -0.52800
C1072       C  0.88856169  0.67970561  0.53137423     0.70570
O1073       O  0.98626631  0.71421790  0.50183361    -0.74330
O1074       O  0.50012317  0.78400688  0.46809070    -0.54890
C1075       C  0.50255361  0.73813077  0.48463525     0.76570
O1076       O  0.93506453  0.83782303  0.64459098    -0.59470
O1077       O  0.89189087  0.82447409  0.61469909    -0.52590
C1078       C  0.91228442  0.82765846  0.64839220     0.73170
Zr1079     Zr  0.95700999  0.86450563  0.58916806     2.54710
O1080       O  0.98596143  0.85073813  0.66387645    -0.80040
O1081       O  0.95214733  0.95431304  0.62129555    -0.93460
Zr1082     Zr  0.94382956  0.73277722  0.51342222     2.64680
O1083       O  0.96594147  0.69246451  0.58362624    -0.98410
O1084       O  0.94107500  0.65012638  0.46792535    -0.80470
O1085       O  0.97027505  0.80730131  0.53611379    -0.83830
O1086       O  0.92961190  0.78866347  0.56702633    -2.18540
O1087       O  0.87583723  0.96041973  0.48265617    -0.67220
O1088       O  0.86930088  0.91664065  0.54189636    -0.51790
C1089       C  0.86700851  0.95872784  0.51727609     0.71550
O1090       O  0.92192394  0.82268026  0.35483054    -0.60130
O1091       O  0.96393282  0.84936298  0.38535905    -0.52110
C1092       C  0.94415654  0.83784518  0.35129829     0.73350
O1093       O  0.85581631  0.78950630  0.41345527    -0.71520
O1094       O  0.84758307  0.80924318  0.48235972    -0.50200
C1095       C  0.84080782  0.79424149  0.44040115     0.74730
O1096       O  0.94374836  0.97403027  0.42968371    -0.66850
O1097       O  0.98289299  0.94012782  0.45740304    -0.54050
C1098       C  0.96776830  0.96913107  0.42998670     0.73120
Zr1099     Zr  0.91958048  0.94431956  0.48394778     2.77540
O1100       O  0.90366763  0.02509790  0.44558500    -0.97600
O1101       O  0.93705549  0.01447025  0.54117159    -0.78420
Zr1102     Zr  0.90081069  0.80812872  0.41387647     2.70070
O1103       O  0.87127847  0.84608407  0.34907272    -0.79670
O1104       O  0.89598465  0.71952570  0.37742201    -0.98750
Zr1105     Zr  0.97088533  0.85264776  0.46982824     2.21500
Zr1106     Zr  0.88861574  0.82448652  0.53240517     2.11130
O1107       O  0.88949267  0.87017791  0.46468293    -2.47440
O1108       O  0.92955588  0.88296807  0.43135823    -0.79460
O1109       O  0.91725047  0.89932613  0.55072322    -0.71660
O1110       O  0.94290565  0.77683272  0.44644007    -2.32620
O1111       O  0.95978033  0.91325331  0.52437192    -2.28820
O1112       O  0.90195021  0.76414105  0.48034032    -0.73420
H1113       H  0.92871884  0.76607732  0.59132704     0.78580
H1114       H  0.94876430  0.75411484  0.42488462     0.79670
H1115       H  0.87234292  0.88003016  0.44863019     0.81890
H1116       H  0.97190931  0.94262112  0.53193923     0.79500
H1117       H  0.93683230  0.66089724  0.43611157     0.42530
H1118       H  0.88815087  0.69792848  0.39698358     0.41500
H1119       H  0.87250532  0.88483041  0.35634616     0.41180
H1120       H  0.88851642  0.01375674  0.42071316     0.39110
H1121       H  0.92181940  0.02909443  0.54993920     0.42250
H1122       H  0.93340313  0.95915112  0.61757925     0.37030
H1123       H  0.48077433  0.87633882  0.68542250     0.43150
H1124       H  0.95203801  0.68050870  0.59719238     0.39560
H1125       H  0.89651462  0.04689749  0.46715117     0.44480
H1126       H  0.95896088  0.95247531  0.65453340     0.43200
H1127       H  0.97297968  0.65917654  0.57359728     0.43340
H1128       H  0.88201404  0.72284824  0.34938577     0.43700
O1129       O  0.78782463  0.49477263  0.14310826    -0.75170
O1130       O  0.76218128  0.43349738  0.16384157    -0.54080
C1131       C  0.77015732  0.48101252  0.16247261     0.78560
O1132       O  0.79314084  0.32558684  0.94789979    -0.59770
O1133       O  0.83690363  0.31954709  0.97037118    -0.52800
C1134       C  0.81543504  0.32208725  0.93988726     0.70570
O1135       O  0.73076295  0.33353079  0.02021063    -0.74330
O1136       O  0.73359000  0.38672767  0.08213421    -0.54890
C1137       C  0.72240784  0.37121443  0.04081529     0.76570
O1138       O  0.84072977  0.48292389  0.05905008    -0.59470
O1139       O  0.86604898  0.41577001  0.04284164    -0.52590
C1140       C  0.86004648  0.46638017  0.04613143     0.73170
Zr1141     Zr  0.81425373  0.44638106  0.09967109     2.54710
O1142       O  0.79226440  0.51813964  0.05529451    -0.80040
O1143       O  0.84587733  0.50352237  0.15273354    -0.93460
Zr1144     Zr  0.77357787  0.33761013  0.01039525     2.64680
O1145       O  0.75848307  0.41052088  0.96177596    -0.98410
O1146       O  0.74718019  0.27721117  0.95231755    -0.80470
O1147       O  0.77496471  0.40090105  0.07161316    -0.83830
O1148       O  0.81218417  0.38796482  0.03436532    -2.18540
O1149       O  0.89239903  0.32803526  0.16286869    -0.67220
O1150       O  0.89030960  0.32062768  0.08741160    -0.51790
C1151       C  0.90314756  0.32357380  0.12893239     0.71550
O1152       O  0.75496525  0.21228442  0.11789620    -0.60130
O1153       O  0.74255642  0.29021291  0.14609534    -0.52110
C1154       C  0.73890021  0.24126569  0.13450393     0.73350
O1155       O  0.81729100  0.19219691  0.03702729    -0.71520
O1156       O  0.85692755  0.22675484  0.04704837    -0.50200
C1157       C  0.84154631  0.18555213  0.04377547     0.74730
O1158       O  0.82719063  0.33082377  0.23896630    -0.66850
O1159       O  0.78358359  0.34359481  0.21585780    -0.54050
C1160       C  0.80463714  0.33562029  0.24630656     0.73120
Zr1161     Zr  0.84746326  0.33126462  0.17624373     2.77540
O1162       O  0.86773003  0.25784269  0.22066244    -0.97600
O1163       O  0.87229735  0.39643820  0.23178243    -0.78420
Zr1164     Zr  0.79821688  0.22590858  0.09603444     2.70070
O1165       O  0.82125578  0.16599506  0.15230688    -0.79670
O1166       O  0.77692957  0.14303331  0.06172067    -0.98750
Zr1167     Zr  0.77284029  0.35121125  0.13427189     2.21500
Zr1168     Zr  0.84541166  0.32430113  0.05236012     2.11130
O1169       O  0.84031292  0.27059882  0.11395671    -2.47440
O1170       O  0.80570255  0.28736466  0.15798907    -0.79460
O1171       O  0.84903912  0.38507759  0.11590271    -0.71660
O1172       O  0.76717342  0.28901696  0.07150585    -2.32620
O1173       O  0.81370474  0.39501976  0.16104304    -2.28820
O1174       O  0.80525125  0.27387512  0.03296602    -0.73420
H1175       H  0.81424303  0.40807571  0.00925890     0.78580
H1176       H  0.75079438  0.27047352  0.06240011     0.79670
H1177       H  0.85374039  0.24478256  0.12211196     0.81890
H1178       H  0.81449771  0.41733130  0.18792520     0.79500
H1179       H  0.75002939  0.24182761  0.96541182     0.42530
H1180       H  0.77270582  0.12434261  0.08686690     0.41500
H1181       H  0.81850073  0.18039198  0.18139102     0.41180
H1182       H  0.87876633  0.24078129  0.20273851     0.39110
H1183       H  0.87874086  0.42223149  0.21346774     0.42250
H1184       H  0.84214460  0.49914692  0.18254617     0.37030
H1185       H  0.78337487  0.50078646  0.02565174     0.43150
H1186       H  0.77417034  0.42788412  0.95709541     0.39560
H1187       H  0.88008279  0.27516390  0.24728641     0.44480
H1188       H  0.84042683  0.54007645  0.14477506     0.43200
H1189       H  0.74987489  0.39311063  0.93201661     0.43340
H1190       H  0.76003565  0.15374085  0.04256264     0.43700
O1191       O  0.79421798  0.48741315  0.66198514    -0.75170
O1192       O  0.76652637  0.42727066  0.67904549    -0.54080
C1193       C  0.77689417  0.47347143  0.68194791     0.78560
O1194       O  0.78195383  0.34568692  0.44583777    -0.59770
O1195       O  0.82431406  0.32323414  0.46166346    -0.52800
C1196       C  0.80271597  0.33381039  0.43402982     0.70570
O1197       O  0.72664294  0.36894489  0.53133124    -0.74330
O1198       O  0.72755777  0.36424989  0.60640083    -0.54890
C1199       C  0.71583009  0.36987345  0.56427317     0.76570
O1200       O  0.84338600  0.47919963  0.57005722    -0.59470
O1201       O  0.85718079  0.41311639  0.52817387    -0.52590
C1202       C  0.85585697  0.46323185  0.54200638     0.73170
Zr1203     Zr  0.81614529  0.44249802  0.60973946     2.54710
O1204       O  0.79579999  0.52107698  0.57371394    -0.80040
O1205       O  0.85070788  0.49081445  0.66465875    -0.93460
Zr1206     Zr  0.76755367  0.35590240  0.51522136     2.64680
O1207       O  0.75529385  0.44106664  0.48247007    -0.98410
O1208       O  0.73458029  0.30815932  0.45685675    -0.80470
O1209       O  0.77437621  0.40569863  0.58561903    -0.83830
O1210       O  0.80860014  0.39483369  0.53770693    -2.18540
O1211       O  0.88900069  0.31462929  0.64708201    -0.67220
O1212       O  0.88312567  0.31355149  0.57040444    -0.51790
C1213       C  0.89765104  0.31354421  0.61074492     0.71550
O1214       O  0.74622991  0.21495408  0.60136187    -0.60130
O1215       O  0.74871092  0.27379415  0.65984526    -0.52110
C1216       C  0.73589724  0.23975223  0.63054480     0.73350
O1217       O  0.81639541  0.17228322  0.54842313    -0.71520
O1218       O  0.84653806  0.22396712  0.52729625    -0.50200
C1219       C  0.83626263  0.17784856  0.53296732     0.74730
O1220       O  0.83220815  0.31251273  0.73754046    -0.66850
O1221       O  0.78936273  0.33262535  0.72315528    -0.54050
C1222       C  0.81127826  0.32101330  0.74980225     0.73120
Zr1223     Zr  0.84631091  0.31391482  0.66831305     2.77540
O1224       O  0.86439003  0.23038547  0.69792574    -0.97600
O1225       O  0.87662887  0.36563827  0.72811776    -0.78420
Zr1226     Zr  0.78952798  0.22669776  0.58248426     2.70070
O1227       O  0.79951074  0.15694501  0.63661191    -0.79670
O1228       O  0.76268876  0.16823412  0.52303991    -0.98750
Zr1229     Zr  0.77314533  0.34542574  0.64259954     2.21500
Zr1230     Zr  0.83779100  0.32268719  0.54287469     2.11130
O1231       O  0.83313608  0.26365272  0.60017827    -2.47440
O1232       O  0.80327543  0.27533449  0.65229080    -0.79460
O1233       O  0.84751058  0.37472035  0.61269202    -0.71660
O1234       O  0.76210439  0.29875542  0.57086499    -2.32620
O1235       O  0.81571265  0.38278655  0.66573038    -2.28820
O1236       O  0.79532759  0.28264091  0.52353718    -0.73420
H1237       H  0.80973460  0.41810845  0.51396655     0.78580
H1238       H  0.74435181  0.28707620  0.56063683     0.79670
H1239       H  0.84569860  0.23590514  0.60472712     0.81890
H1240       H  0.81888323  0.40172740  0.69486586     0.79500
H1241       H  0.73500322  0.27139389  0.46717264     0.42530
H1242       H  0.76831091  0.17535282  0.49530381     0.41500
H1243       H  0.81862904  0.15652927  0.64589537     0.41180
H1244       H  0.87753480  0.22153542  0.68119060     0.39110
H1245       H  0.88054367  0.39764455  0.71319303     0.42250
H1246       H  0.84820923  0.48231185  0.69465178     0.37030
H1247       H  0.79153900  0.51161386  0.54079030     0.42670
H1248       H  0.76306750  0.44214493  0.45634666     0.39560
H1249       H  0.87454207  0.24000436  0.72921754     0.44480
H1250       H  0.84600595  0.52861837  0.66135230     0.43200
H1251       H  0.73648670  0.43703945  0.46876415     0.43340
H1252       H  0.76863154  0.13189983  0.53077881     0.43700
O1253       O  0.54182764  0.99137121  0.15471586    -0.75170
O1254       O  0.57075865  0.97175852  0.21970012    -0.54080
C1255       C  0.55876387  0.96102033  0.17772852     0.78560
O1256       O  0.63698531  0.16130135  0.16216489    -0.59770
O1257       O  0.61618733  0.24063469  0.15562608    -0.52800
C1258       C  0.63554941  0.21005526  0.15300089     0.70570
O1259       O  0.63510119  0.02955188  0.24792671    -0.74330
O1260       O  0.60956197  0.00341285  0.29303112    -0.54890
C1261       C  0.62942825  0.99919638  0.27684154     0.76570
O1262       O  0.54970802  0.12942919  0.07215113    -0.59470
O1263       O  0.56279951  0.21587200  0.08809203    -0.52590
C1264       C  0.55574799  0.17522001  0.06038059     0.73170
Zr1265     Zr  0.54709078  0.08326270  0.13950264     2.54710
O1266       O  0.54689283  0.02668795  0.07289226    -0.80040
O1267       O  0.50072255  0.09086887  0.10874890    -0.93460
Zr1268     Zr  0.61984864  0.11146225  0.21207134     2.64680
O1269       O  0.63621965  0.05004169  0.16253761    -0.98410
O1270       O  0.66265974  0.13958496  0.25703897    -0.80470
O1271       O  0.58306059  0.05671796  0.19724462    -0.83830
O1272       O  0.58484972  0.13699153  0.15219259    -2.18540
O1273       O  0.50510446  0.23931520  0.19553243    -0.67220
O1274       O  0.53013122  0.27395018  0.15249312    -0.51790
C1275       C  0.50946306  0.27258845  0.16790730     0.71550
O1276       O  0.58472088  0.15963936  0.36055447    -0.60130
O1277       O  0.57583783  0.07097671  0.35002835    -0.52110
C1278       C  0.57910837  0.11498173  0.37471493     0.73350
O1279       O  0.58872951  0.29443642  0.28246237    -0.71520
O1280       O  0.57892039  0.31191007  0.20739956    -0.50200
C1281       C  0.58225786  0.32600557  0.24956451     0.74730
O1282       O  0.50933619  0.10335843  0.28317447    -0.66850
O1283       O  0.53333062  0.02863540  0.28940532    -0.54050
C1284       C  0.51495343  0.05673117  0.29783407     0.73120
Zr1285     Zr  0.52279303  0.16102217  0.23082255     2.77540
O1286       O  0.50767994  0.21417611  0.28727004    -0.97600
O1287       O  0.97926757  0.13258799  0.18960448    -0.78420
Zr1288     Zr  0.59487665  0.20064440  0.29693859     2.70070
O1289       O  0.60225745  0.25886138  0.36503503    -0.79670
O1290       O  0.64175555  0.20382757  0.32415864    -0.98750
Zr1291     Zr  0.57145263  0.05489467  0.26735185     2.21500
Zr1292     Zr  0.57204725  0.22406508  0.17063823     2.11130
O1293       O  0.55792928  0.22121969  0.23929321    -2.47440
O1294       O  0.55945928  0.14100659  0.28743849    -0.79460
O1295       O  0.53463972  0.16697936  0.16078971    -0.71660
O1296       O  0.60808480  0.11402839  0.28155996    -2.32620
O1297       O  0.53441830  0.07645303  0.20825912    -2.28820
O1298       O  0.60864201  0.19995584  0.22958410    -0.73420
H1299       H  0.59131212  0.13630561  0.12542308     0.78580
H1300       H  0.62194826  0.10335551  0.30641608     0.79670
H1301       H  0.55013292  0.25384419  0.24601378     0.81890
H1302       H  0.52035375  0.05110990  0.20482235     0.79500
H1303       H  0.66622686  0.11688633  0.28352417     0.42530
H1304       H  0.64638503  0.24210421  0.32604287     0.41500
H1305       H  0.58477572  0.26846742  0.36771672     0.41180
H1306       H  0.51703320  0.24866857  0.29006092     0.39110
H1307       H  0.97475541  0.15512644  0.16304715     0.42250
H1308       H  0.49290133  0.06890168  0.12800313     0.37030
H1309       H  0.56383993  0.03347050  0.06647844     0.43150
H1310       H  0.62689183  0.05866013  0.13134612     0.39560
H1311       H  0.98950902  0.22208866  0.27232302     0.44480
H1312       H  0.49701491  0.07095755  0.07905127     0.43200
H1313       H  0.65430200  0.06178637  0.16562774     0.43340
H1314       H  0.64524346  0.19378203  0.35613437     0.43700
O1315       O  0.58411823  0.01872877  0.70093120    -0.75170
O1316       O  0.56789477  0.99419559  0.75616122    -0.54080
C1317       C  0.57450267  0.98267659  0.71946066     0.78560
O1318       O  0.63810438  0.18282936  0.67927635    -0.59770
O1319       O  0.60878760  0.23670219  0.63494038    -0.52800
C1320       C  0.63176651  0.21668423  0.64861154     0.70570
O1321       O  0.63439308  0.06695948  0.77673558    -0.74330
O1322       O  0.60531252  0.04412460  0.81562543    -0.54890
C1323       C  0.62724166  0.04055451  0.80646252     0.76570
O1324       O  0.55915633  0.09873199  0.57584370    -0.59470
O1325       O  0.56042602  0.18852910  0.57335273    -0.52590
C1326       C  0.56048645  0.14140751  0.55501689     0.73170
Zr1327     Zr  0.55491540  0.07461584  0.65008295     2.54710
O1328       O  0.56096643  0.99640617  0.60512970    -0.80040
O1329       O  0.50922495  0.06041413  0.61439476    -0.93460
Zr1330     Zr  0.61753444  0.13843075  0.72829887     2.64680
O1331       O  0.63196940  0.05794404  0.69551511    -0.98410
O1332       O  0.65492484  0.18981832  0.77204114    -0.80470
O1333       O  0.57297868  0.12627568  0.71735225    -0.83830
O1334       O  0.58822717  0.13729171  0.65511891    -2.18540
O1335       O  0.49586226  0.22862578  0.66045831    -0.67220
O1336       O  0.52363571  0.26581821  0.62393585    -0.51790
C1337       C  0.50150973  0.26211478  0.63425882     0.71550
O1338       O  0.57523391  0.21004683  0.86040583    -0.60130
O1339       O  0.56608303  0.12144762  0.85764786    -0.52110
C1340       C  0.56965567  0.16765390  0.87819585     0.73350
O1341       O  0.59276738  0.29377224  0.73623551    -0.71520
O1342       O  0.56892933  0.31304031  0.66884819    -0.50200
C1343       C  0.57883691  0.32666312  0.71028853     0.74730
O1344       O  0.99558099  0.11426828  0.76274958    -0.66850
O1345       O  0.52719007  0.06352495  0.80412256    -0.54050
C1346       C  0.00395120  0.08041405  0.79313105     0.73120
Zr1347     Zr  0.51412283  0.16101254  0.70951733     2.77540
O1348       O  0.48812353  0.21930882  0.74537033    -0.97600
O1349       O  0.97554419  0.11658860  0.66184720    -0.78420
Zr1350     Zr  0.57814251  0.23336776  0.78513424     2.70070
O1351       O  0.55098484  0.30392632  0.80315230    -0.79670
O1352       O  0.61519741  0.27346651  0.84073835    -0.98750
Zr1353     Zr  0.56599130  0.08691863  0.78196347     2.21500
Zr1354     Zr  0.56580196  0.21967522  0.65226049     2.11130
O1355       O  0.54589097  0.22955079  0.71546831    -2.47440
O1356       O  0.54494675  0.16812934  0.78062045    -0.79460
O1357       O  0.53211519  0.15364309  0.64441038    -0.71660
O1358       O  0.60023781  0.15081200  0.79250539    -2.32620
O1359       O  0.53403868  0.07654686  0.71096590    -2.28820
O1360       O  0.59848541  0.22210658  0.72406775    -0.73420
H1361       H  0.59736889  0.13189899  0.63184473     0.78580
H1362       H  0.61297897  0.14927061  0.82120876     0.79670
H1363       H  0.53736114  0.26325609  0.71431038     0.81890
H1364       H  0.52188586  0.04792973  0.71017817     0.79500
H1365       H  0.65950108  0.17349127  0.80190477     0.42530
H1366       H  0.62454009  0.29438508  0.82298862     0.41500
H1367       H  0.53686439  0.28510541  0.81203461     0.41180
H1368       H  0.49529283  0.25554198  0.74493919     0.39110
H1369       H  0.97231835  0.13389989  0.63246751     0.42250
H1370       H  0.00270099  0.03608561  0.63363036     0.37030
H1371       H  0.57867584  0.00063147  0.60125732     0.43150
H1372       H  0.62250963  0.05633417  0.66307818     0.39560
H1373       H  0.97082247  0.21933369  0.72375132     0.44480
H1374       H  0.50862841  0.04016737  0.58562913     0.43200
H1375       H  0.65008376  0.06603769  0.69540914     0.43340
H1376       H  0.60786763  0.30024370  0.85842341     0.43700
C1377       C  0.57509700  0.11827347  0.42171397    -0.05350
C1378       C  0.58085991  0.16708581  0.44709228    -0.32770
C1379       C  0.57524961  0.17569700  0.48906611     0.36480
C1380       C  0.56398218  0.13486365  0.50801443    -0.05700
C1381       C  0.55849393  0.08554007  0.48330196    -0.32670
C1382       C  0.56393217  0.07710957  0.44066497     0.36380
H1383       H  0.58975437  0.19976461  0.43438807     0.16750
O1384       O  0.58200869  0.22376890  0.51204619    -0.60170
H1385       H  0.55001955  0.05311625  0.49712585     0.16770
O1386       O  0.55782364  0.02891657  0.41774514    -0.60270
H1387       H  0.57304083  0.00651237  0.42916354     0.43760
H1388       H  0.56737984  0.24738253  0.49983559     0.43720
C1389       C  0.55663728  0.17875140  0.01229697    -0.05350
C1390       C  0.57434738  0.21375793  0.00092331    -0.32770
C1391       C  0.57876585  0.21114491  0.95741185     0.36480
C1392       C  0.56566116  0.17252151  0.92457804    -0.05700
C1393       C  0.54738165  0.13888263  0.93554123    -0.32670
C1394       C  0.54266446  0.14192751  0.97858148     0.36380
H1395       H  0.58563794  0.24176626  0.02634383     0.16750
O1396       O  0.59702230  0.24437842  0.94828868    -0.60170
H1397       H  0.53653448  0.10993625  0.91050034     0.16770
O1398       O  0.52406009  0.10907547  0.98715607    -0.60270
H1399       H  0.53131400  0.07291344  0.98815028     0.43760
H1400       H  0.58807545  0.27830654  0.94042697     0.43720
C1401       C  0.92605821  0.31139288  0.61363069    -0.05350
C1402       C  0.93428598  0.28811254  0.57675544    -0.32770
C1403       C  0.96059079  0.28109240  0.57887380     0.36480
C1404       C  0.97954876  0.29765030  0.61810303    -0.05700
C1405       C  0.97149492  0.32704787  0.65246208    -0.32670
C1406       C  0.94511510  0.33287969  0.65098300     0.36380
H1407       H  0.92019793  0.27199696  0.54701503     0.16750
O1408       O  0.96731682  0.25127217  0.54512587    -0.60170
H1409       H  0.98567845  0.33937389  0.68348887     0.16770
O1410       O  0.93828988  0.35843165  0.68670141    -0.60270
H1411       H  0.93927184  0.33114512  0.70951154     0.43760
H1412       H  0.97203988  0.27748181  0.52514592     0.43720
C1413       C  0.70754932  0.23484508  0.62963047    -0.05350
C1414       C  0.69763999  0.27118347  0.65746344    -0.32770
C1415       C  0.67160000  0.27067071  0.65835306     0.36480
C1416       C  0.65415230  0.23320338  0.63150386    -0.05700
C1417       C  0.66343512  0.19816610  0.60202670    -0.32670
C1418       C  0.68970081  0.19932808  0.60039438     0.36380
H1419       H  0.71024248  0.30018540  0.67986729     0.16750
O1420       O  0.66399101  0.30344459  0.68947278    -0.60170
H1421       H  0.65062659  0.16748427  0.58227824     0.16770
O1422       O  0.69767941  0.16470460  0.57103495    -0.60270
H1423       H  0.70256816  0.13216893  0.58809922     0.43760
H1424       H  0.65709704  0.33525785  0.67277617     0.43720
C1425       C  0.81278340  0.31968765  0.79851949    -0.05350
C1426       C  0.79630449  0.35219269  0.81622582    -0.32770
C1427       C  0.79777639  0.35436149  0.86233829     0.36480
C1428       C  0.81560372  0.32276571  0.89185038    -0.05700
C1429       C  0.83249633  0.29081626  0.87452560    -0.32670
C1430       C  0.83112863  0.28892351  0.82804356     0.36380
H1431       H  0.78256625  0.37720616  0.79441607     0.16750
O1432       O  0.78185323  0.38828040  0.87829758    -0.60170
H1433       H  0.84627564  0.26635367  0.89679050     0.16770
O1434       O  0.84754789  0.25644696  0.81186598    -0.60270
H1435       H  0.83780256  0.22249612  0.80244790     0.43760
H1436       H  0.79146091  0.42270057  0.88482225     0.43720
C1437       C  0.80304446  0.33211969  0.29353519    -0.05350
C1438       C  0.78413489  0.36056971  0.30858196    -0.32770
C1439       C  0.78352761  0.36114084  0.35409418     0.36480
C1440       C  0.80186212  0.33228148  0.38528360    -0.05700
C1441       C  0.82023146  0.30249273  0.36976944    -0.32670
C1442       C  0.82085730  0.30200921  0.32440057     0.36380
H1443       H  0.77030136  0.38396872  0.28534677     0.16750
O1444       O  0.76539259  0.39124946  0.36779260    -0.60170
H1445       H  0.83425131  0.27935373  0.39289978     0.16770
O1446       O  0.83903708  0.27198408  0.31071341    -0.60270
H1447       H  0.83024992  0.23746207  0.29939095     0.43760
H1448       H  0.77339977  0.42719689  0.37524188     0.43720
C1449       C  0.93214582  0.32091324  0.13645578    -0.05350
C1450       C  0.94907715  0.33880803  0.17767127    -0.32770
C1451       C  0.97604425  0.33226110  0.18560855     0.36480
C1452       C  0.98681101  0.30708015  0.15233151    -0.05700
C1453       C  0.97024043  0.29412685  0.10976124    -0.32670
C1454       C  0.94336863  0.30037049  0.10166837     0.36380
H1455       H  0.94140055  0.35618510  0.20450410     0.16750
O1456       O  0.99175939  0.34686752  0.22747956    -0.60170
H1457       H  0.97774185  0.27329607  0.08413168     0.16770
O1458       O  0.92821650  0.28285054  0.06015920    -0.60270
H1459       H  0.92509001  0.24449248  0.06304983     0.43760
H1460       H  0.98803786  0.32074218  0.24846686     0.43720
C1461       C  0.71314502  0.22249033  0.13915593    -0.05350
C1462       C  0.69250633  0.21327003  0.10027098    -0.32770
C1463       C  0.66640975  0.21533226  0.10282081     0.36480
C1464       C  0.66021890  0.22905662  0.14426575    -0.05700
C1465       C  0.68091228  0.23845073  0.18282006    -0.32670
C1466       C  0.70678990  0.23474196  0.18067953     0.36380
H1467       H  0.69657620  0.20631757  0.06750604     0.16750
O1468       O  0.64706287  0.20204021  0.06484805    -0.60170
H1469       H  0.67696725  0.24573614  0.21567828     0.16770
O1470       O  0.72600906  0.24567474  0.21944232    -0.60270
H1471       H  0.73113105  0.21059735  0.23200193     0.43760
H1472       H  0.64156934  0.23621262  0.05081653     0.43720
C1473       C  0.53329298  0.88930388  0.60715110    -0.05350
C1474       C  0.56007520  0.88119534  0.62106723    -0.32770
C1475       C  0.57481112  0.90731362  0.66169035     0.36480
C1476       C  0.56220416  0.93719039  0.68999560    -0.05700
C1477       C  0.53546473  0.93853325  0.67812571    -0.32670
C1478       C  0.52178126  0.91944574  0.63581169     0.36380
H1479       H  0.56955388  0.85720700  0.60004724     0.16750
O1480       O  0.60124770  0.90516327  0.67259440    -0.60170
H1481       H  0.02526356  0.96099815  0.69884856     0.16770
O1482       O  0.99674303  0.93281805  0.62135281    -0.60270
H1483       H  0.99650377  0.95819266  0.59761693     0.43760
H1484       H  0.60691370  0.93388428  0.65589838     0.43720
C1485       C  0.00051133  0.03433483  0.32850998    -0.05350
C1486       C  0.00861658  0.98580029  0.34739987    -0.32770
C1487       C  0.99844443  0.96559132  0.38077573     0.36480
C1488       C  0.97869694  0.99268239  0.39528680    -0.05700
C1489       C  0.96960975  0.04031214  0.37540604    -0.32670
C1490       C  0.98051910  0.06153004  0.34243490     0.36380
H1491       H  0.02367667  0.96348958  0.33745947     0.16750
O1492       O  0.00758163  0.91801676  0.39795174    -0.60170
H1493       H  0.95437913  0.06142694  0.38588139     0.16770
O1494       O  0.97179329  0.10910018  0.32488283    -0.60270
H1495       H  0.95746756  0.09965159  0.29787307     0.43760
H1496       H  0.02408162  0.92691028  0.42069630     0.43720
C1497       C  0.87762478  0.62497078  0.53472519    -0.05350
C1498       C  0.89386851  0.58995442  0.56363044    -0.32770
C1499       C  0.88960600  0.53440736  0.56028079     0.36480
C1500       C  0.86840985  0.51069253  0.52780862    -0.05700
C1501       C  0.85240393  0.54552568  0.49799009    -0.32670
C1502       C  0.85706545  0.60146185  0.50072442     0.36380
H1503       H  0.91060040  0.60597310  0.58883938     0.16750
O1504       O  0.90500794  0.50391725  0.59212700    -0.60170
H1505       H  0.83514901  0.52957338  0.47409702     0.16770
O1506       O  0.84180159  0.63240256  0.46913731    -0.60270
H1507       H  0.82798089  0.64515369  0.48309516     0.43760
H1508       H  0.91831695  0.48969326  0.57758299     0.43720
C1509       C  0.85558511  0.01105140  0.52703539    -0.05350
C1510       C  0.86963965  0.04599907  0.56216070    -0.32770
C1511       C  0.86552203  0.10167804  0.56197711     0.36480
C1512       C  0.84757677  0.12471510  0.52564468    -0.05700
C1513       C  0.83320766  0.08958636  0.49117323    -0.32670
C1514       C  0.83729496  0.03421228  0.49126365     0.36380
H1515       H  0.88468597  0.03039488  0.58905167     0.16750
O1516       O  0.87887531  0.13330321  0.59816321    -0.60170
H1517       H  0.81805677  0.10509289  0.46438141     0.16770
O1518       O  0.82344275  0.00263457  0.45543940    -0.60270
H1519       H  0.83181817  0.00787969  0.43039858     0.43760
H1520       H  0.86832985  0.13283634  0.62059199     0.43720
C1521       C  0.91735853  0.82422525  0.79064645    -0.05350
C1522       C  0.93436691  0.79496828  0.77159522    -0.32770
C1523       C  0.93128118  0.79213260  0.72460181     0.36480
C1524       C  0.91107479  0.81946330  0.69559110    -0.05700
C1525       C  0.89345879  0.84727510  0.71447047    -0.32670
C1526       C  0.89647208  0.84975097  0.76164398     0.36380
H1527       H  0.95001708  0.77387140  0.79317289     0.16750
O1528       O  0.94812884  0.76229331  0.70703225    -0.60170
H1529       H  0.87821889  0.86943541  0.69298589     0.16770
O1530       O  0.87940933  0.87880327  0.77921473    -0.60270
H1531       H  0.88771225  0.91440472  0.78737413     0.43760
H1532       H  0.96485366  0.78212319  0.71600377     0.43720
C1533       C  0.93131983  0.84922954  0.20743271    -0.05350
C1534       C  0.93584694  0.89536677  0.23594707    -0.32770
C1535       C  0.94222745  0.89242945  0.28356009     0.36480
C1536       C  0.94532492  0.84268355  0.30350792    -0.05700
C1537       C  0.94125029  0.79654443  0.27473771    -0.32670
C1538       C  0.93425305  0.79952613  0.22726591     0.36380
H1539       H  0.93376200  0.93393210  0.22118180     0.16750
O1540       O  0.94291683  0.93792074  0.31020662    -0.60170
H1541       H  0.94240015  0.75787094  0.28923837     0.16770
O1542       O  0.93094498  0.75357051  0.20052619    -0.60270
H1543       H  0.91241928  0.74370438  0.19530667     0.43760
H1544       H  0.95421156  0.96340129  0.30002362     0.43720
C1545       C  0.54074737  0.86689640  0.06667352    -0.05350
C1546       C  0.54151216  0.84026990  0.10675522    -0.32770
C1547       C  0.55207035  0.86647052  0.14923854     0.36480
C1548       C  0.56526202  0.91510288  0.15095589    -0.05700
C1549       C  0.57296454  0.92850483  0.11183988    -0.32670
C1550       C  0.55996695  0.90573618  0.06913846     0.36380
H1551       H  0.02877566  0.80624085  0.10506697     0.16750
O1552       O  0.54664200  0.84792173  0.18749277    -0.60170
H1553       H  0.58486247  0.96375374  0.11311811     0.16770
O1554       O  0.56230667  0.92892902  0.03054722    -0.60270
H1555       H  0.57306963  0.90439322  0.01718144     0.43760
H1556       H  0.03236976  0.87002881  0.19303044     0.43720
C1557       C  0.95946784  0.00305792  0.87051502    -0.05350
C1558       C  0.96610648  0.05705394  0.88024083    -0.32770
C1559       C  0.97910485  0.08444140  0.85308600     0.36480
C1560       C  0.98568296  0.05748135  0.81622712    -0.05700
C1561       C  0.97731343  0.00495378  0.80466844    -0.32670
C1562       C  0.96427485  0.97778817  0.83134213     0.36380
H1563       H  0.96280925  0.07688829  0.91043443     0.16750
O1564       O  0.98702759  0.13609858  0.86486445    -0.60170
H1565       H  0.98200511  0.98406015  0.77605846     0.16770
O1566       O  0.95700569  0.92571391  0.81975639    -0.60270
H1567       H  0.97314276  0.90525433  0.82846747     0.43760
H1568       H  0.97319047  0.15783259  0.84654904     0.43720
C1569       C  0.88470157  0.62839541  0.05044476    -0.05350
C1570       C  0.89878307  0.59252451  0.08145538    -0.32770
C1571       C  0.89403936  0.53683234  0.07623609     0.36480
C1572       C  0.87525475  0.51407830  0.03868333    -0.05700
C1573       C  0.86211482  0.54993414  0.00647706    -0.32670
C1574       C  0.86661206  0.60570518  0.01203112     0.36380
H1575       H  0.91390962  0.60792408  0.11002260     0.16750
O1576       O  0.90642457  0.50535602  0.11032574    -0.60170
H1577       H  0.84669445  0.53480405  0.97825857     0.16770
O1578       O  0.85376217  0.63755524  0.97861107    -0.60270
H1579       H  0.83832578  0.64960257  0.98834970     0.43760
H1580       H  0.92144928  0.49113936  0.10046494     0.43720
C1581       C  0.86505205  0.01817906  0.06042417    -0.05350
C1582       C  0.88375182  0.05999217  0.06861490    -0.32770
C1583       C  0.87690461  0.11412441  0.06328570     0.36480
C1584       C  0.85070516  0.12845067  0.04964997    -0.05700
C1585       C  0.83210783  0.08660826  0.04412397    -0.32670
C1586       C  0.83899597  0.03281900  0.04941342     0.36380
H1587       H  0.90399440  0.05027567  0.07610110     0.16750
O1588       O  0.89608267  0.15206443  0.06919881    -0.60170
H1589       H  0.81175796  0.09506699  0.03375603     0.16770
O1590       O  0.81991595  0.99434271  0.03955948    -0.60270
H1591       H  0.81665435  0.98645812  0.06920540     0.43760
H1592       H  0.90013393  0.16327619  0.10182459     0.43720
C1593       C  0.68326893  0.43956446  0.92192560    -0.05350
C1594       C  0.67048387  0.39989631  0.93941560    -0.32770
C1595       C  0.68143690  0.38061107  0.98238320     0.36480
C1596       C  0.70431239  0.40410475  0.01005224    -0.05700
C1597       C  0.71594923  0.44612745  0.99357625    -0.32670
C1598       C  0.70672507  0.46096160  0.94884356     0.36380
H1599       H  0.65171659  0.38484034  0.92012521     0.16750
O1600       O  0.66991721  0.33844769  0.99703945    -0.60170
H1601       H  0.73411627  0.46327465  0.01363824     0.16770
O1602       O  0.72005583  0.49909352  0.93270607    -0.60270
H1603       H  0.72662463  0.48079404  0.90856102     0.43760
H1604       H  0.67576431  0.30641718  0.98269593     0.43720
C1605       C  0.76697499  0.51203796  0.70974028    -0.05350
C1606       C  0.74206444  0.52989742  0.69138431    -0.32770
C1607       C  0.72669541  0.54676569  0.71961512     0.36480
C1608       C  0.73662096  0.54809162  0.76701237    -0.05700
C1609       C  0.76249578  0.53504066  0.78542942    -0.32670
C1610       C  0.77758993  0.51605211  0.75694579     0.36380
H1611       H  0.73373742  0.52644901  0.65512589     0.16750
O1612       O  0.70184713  0.56133224  0.70053151    -0.60170
H1613       H  0.77046258  0.53664563  0.82185599     0.16770
O1614       O  0.80169609  0.49695028  0.77561649    -0.60270
H1615       H  0.81384653  0.52630717  0.77418242     0.43760
H1616       H  0.69189715  0.52749372  0.69178962     0.43720
C1617       C  0.80447293  0.80176107  0.96399501    -0.05350
C1618       C  0.79217757  0.78955203  0.99837430    -0.32770
C1619       C  0.76496991  0.78514962  0.98947734     0.36480
C1620       C  0.74938178  0.79356617  0.94575415    -0.05700
C1621       C  0.76165446  0.80936237  0.91251209    -0.32670
C1622       C  0.78864340  0.81280089  0.92096932     0.36380
H1623       H  0.80372401  0.78137717  0.03195478     0.16750
O1624       O  0.75407700  0.76845403  0.02269749    -0.60170
H1625       H  0.75020309  0.81636382  0.87855889     0.16770
O1626       O  0.79925308  0.82737021  0.88672043    -0.60270
H1627       H  0.79887938  0.79458190  0.86735432     0.43760
H1628       H  0.75002711  0.80149861  0.03813899     0.43720
C1629       C  0.57802562  0.73983313  0.96043350    -0.05350
C1630       C  0.56579719  0.69787437  0.97692108    -0.32770
C1631       C  0.54060714  0.70233018  0.98225894     0.36480
C1632       C  0.52666062  0.74822513  0.96879577    -0.05700
C1633       C  0.53942727  0.79116881  0.95471688    -0.32670
C1634       C  0.56493234  0.78752480  0.95122251     0.36380
H1635       H  0.57521345  0.65994825  0.98261361     0.16750
O1636       O  0.52900271  0.65969142  0.99600243    -0.60170
H1637       H  0.52924867  0.82726595  0.94421955     0.16770
O1638       O  0.57584792  0.82878621  0.93426180    -0.60270
H1639       H  0.56993929  0.82350226  0.90079651     0.43760
H1640       H  0.53343744  0.66385787  0.02956972     0.43720
C1641       C  0.57941203  0.48315934  0.76603846    -0.05350
C1642       C  0.56936516  0.47442009  0.71926623    -0.32770
C1643       C  0.56685876  0.42263596  0.70019354     0.36480
C1644       C  0.57535150  0.38001898  0.72839982    -0.05700
C1645       C  0.58241754  0.38919407  0.77552666    -0.32670
C1646       C  0.58381273  0.44027252  0.79452993     0.36380
H1647       H  0.56623067  0.50761802  0.69722622     0.16750
O1648       O  0.55829225  0.41475401  0.65401803    -0.60170
H1649       H  0.58883351  0.35728033  0.79789002     0.16770
O1650       O  0.59332934  0.44844135  0.84062056    -0.60270
H1651       H  0.61210804  0.44158834  0.84682768     0.43760
H1652       H  0.57372023  0.42034321  0.64225789     0.43720
C1653       C  0.66007389  0.89721554  0.85239336    -0.05350
C1654       C  0.64982742  0.92947574  0.88192175    -0.32770
C1655       C  0.64158100  0.98025798  0.87003418     0.36480
C1656       C  0.64417300  0.99929053  0.82871142    -0.05700
C1657       C  0.65850065  0.97072973  0.80344869    -0.32670
C1658       C  0.66623189  0.91945288  0.81474384     0.36380
H1659       H  0.64576917  0.91378455  0.91194470     0.16750
O1660       O  0.62946467  0.00957499  0.89731667    -0.60170
H1661       H  0.66121660  0.98551032  0.77211573     0.16770
O1662       O  0.67838913  0.89044585  0.78736440    -0.60270
H1663       H  0.66476024  0.88079160  0.75934937     0.43760
H1664       H  0.61228965  0.99219498  0.89333511     0.43720
C1665       C  0.65395009  0.61029429  0.56512000    -0.05350
C1666       C  0.64125458  0.56955368  0.58190371    -0.32770
C1667       C  0.64043389  0.57074126  0.62792343     0.36480
C1668       C  0.65148909  0.61419378  0.65743414    -0.05700
C1669       C  0.66372752  0.65486341  0.64014913    -0.32670
C1670       C  0.66524423  0.65304747  0.59515301     0.36380
H1671       H  0.63225068  0.53643297  0.55955039     0.16750
O1672       O  0.62804775  0.53035768  0.64313648    -0.60170
H1673       H  0.67261992  0.68855954  0.66191861     0.16770
O1674       O  0.67694710  0.69489783  0.58044510    -0.60270
H1675       H  0.69576160  0.68922952  0.59185477     0.43760
H1676       H  0.64097871  0.50196179  0.65046245     0.43720
C1677       C  0.65899538  0.69037895  0.07055988    -0.05350
C1678       C  0.68196119  0.68477775  0.10408084    -0.32770
C1679       C  0.68147910  0.67848175  0.14923797     0.36480
C1680       C  0.65761568  0.67727605  0.16119703    -0.05700
C1681       C  0.63476974  0.68523861  0.12769790    -0.32670
C1682       C  0.63544782  0.69231137  0.08280157     0.36380
H1683       H  0.70022265  0.68275648  0.09488953     0.16750
O1684       O  0.70433540  0.67155398  0.18102778    -0.60170
H1685       H  0.61631301  0.68560037  0.13623132     0.16770
O1686       O  0.61289296  0.69969128  0.05082093    -0.60270
H1687       H  0.60990470  0.73842734  0.05259679     0.43760
H1688       H  0.71019155  0.63578203  0.17378366     0.43720
C1689       C  0.66130064  0.43646247  0.47542048    -0.05350
C1690       C  0.66835965  0.46153432  0.51887167    -0.32770
C1691       C  0.68162617  0.43387054  0.55621131     0.36480
C1692       C  0.68819675  0.38097709  0.54946560    -0.05700
C1693       C  0.67511391  0.35308284  0.50881965    -0.32670
C1694       C  0.66292253  0.38120669  0.47083101     0.36380
H1695       H  0.66659780  0.50398701  0.52292806     0.16750
O1696       O  0.69261632  0.46142680  0.59632677    -0.60170
H1697       H  0.67935614  0.31164990  0.50355022     0.16770
O1698       O  0.65526088  0.35539194  0.42899239    -0.60270
H1699       H  0.63655563  0.34775220  0.42445386     0.43760
H1700       H  0.70773273  0.48059768  0.59096606     0.43720
C1701       C  0.75742952  0.52038405  0.18559693    -0.05350
C1702       C  0.73053238  0.51487528  0.17751128    -0.32770
C1703       C  0.71790581  0.53460363  0.20911060     0.36480
C1704       C  0.73199894  0.56232535  0.24858262    -0.05700
C1705       C  0.75846013  0.57305009  0.25465071    -0.32670
C1706       C  0.77138693  0.55131949  0.22354207     0.36380
H1707       H  0.71958101  0.49112039  0.14838616     0.16750
O1708       O  0.69174530  0.52622928  0.20141448    -0.60170
H1709       H  0.76928936  0.59531140  0.28473106     0.16770
O1710       O  0.79771963  0.55697224  0.23227594    -0.60270
H1711       H  0.80478439  0.52692541  0.25128523     0.43760
H1712       H  0.68974667  0.49030365  0.21225971     0.43720
C1713       C  0.76373416  0.74019774  0.40820431    -0.05350
C1714       C  0.78116337  0.71451453  0.38750556    -0.32770
C1715       C  0.80625452  0.73403726  0.39502130     0.36480
C1716       C  0.81374330  0.77984988  0.42327525    -0.05700
C1717       C  0.79569112  0.80724173  0.44165892    -0.32670
C1718       C  0.77071437  0.78721391  0.43456483     0.36380
H1719       H  0.77549012  0.67829723  0.36670994     0.16750
O1720       O  0.82376968  0.70564611  0.37805138    -0.60170
H1721       H  0.80130559  0.84299389  0.46308718     0.16770
O1722       O  0.75320905  0.81399786  0.45276465    -0.60270
H1723       H  0.75560233  0.80056612  0.48360049     0.43760
H1724       H  0.82198254  0.71838917  0.34713411     0.43720
C1725       C  0.52584747  0.71173164  0.48185764    -0.05350
C1726       C  0.52361742  0.66638176  0.45322459    -0.32770
C1727       C  0.54400191  0.65258128  0.43477919     0.36480
C1728       C  0.56652186  0.68488798  0.44516440    -0.05700
C1729       C  0.56952472  0.72729874  0.47709886    -0.32670
C1730       C  0.54933929  0.74046925  0.49599647     0.36380
H1731       H  0.50533746  0.64490409  0.44172195     0.16750
O1732       O  0.54080648  0.61089145  0.40328601    -0.60170
H1733       H  0.58722258  0.75099083  0.48639216     0.16770
O1734       O  0.55176715  0.78454173  0.52483034    -0.60270
H1735       H  0.55484085  0.77050170  0.55556654     0.43760
H1736       H  0.54462113  0.57870141  0.42121343     0.43720
C1737       C  0.57542038  0.38022972  0.26204426    -0.05350
C1738       C  0.57030206  0.38945621  0.30478852    -0.32770
C1739       C  0.56586184  0.44038986  0.32003915     0.36480
C1740       C  0.56740037  0.48344197  0.29308379    -0.05700
C1741       C  0.56719273  0.47304748  0.24729093    -0.32670
C1742       C  0.57191166  0.42191203  0.23192905     0.36380
H1743       H  0.57067492  0.35744612  0.32748497     0.16750
O1744       O  0.56324883  0.44828512  0.36341671    -0.60170
H1745       H  0.56680052  0.50540943  0.22496037     0.16770
O1746       O  0.57450161  0.41406965  0.18854400    -0.60270
H1747       H  0.59319809  0.41921811  0.19095276     0.43760
H1748       H  0.54449294  0.45315134  0.35997262     0.43720
C1749       C  0.64627445  0.95468281  0.29060449    -0.05350
C1750       C  0.65760049  0.94826387  0.33662080    -0.32770
C1751       C  0.66974565  0.90096089  0.35067331     0.36480
C1752       C  0.66982325  0.85922899  0.31842813    -0.05700
C1753       C  0.66077610  0.86797940  0.27205194    -0.32670
C1754       C  0.64890396  0.91550227  0.25800184     0.36380
H1755       H  0.65593040  0.97889115  0.36171428     0.16750
O1756       O  0.67946956  0.89417356  0.39616155    -0.60170
H1757       H  0.66036915  0.83605974  0.24688757     0.16770
O1758       O  0.63711608  0.92062296  0.21291536    -0.60270
H1759       H  0.65056450  0.93616400  0.19993805     0.43760
H1760       H  0.69838669  0.89999324  0.40181330     0.43720
loop_ 
_geom_bond_atom_site_label_1 
_geom_bond_atom_site_label_2 
_geom_bond_distance 
_geom_bond_site_symmetry_2 
_ccdc_geom_bond_type 
O1          Zr13   2.423       .  S
O1            C3   1.280       .  A
O2          Zr39   2.411       .  S
O2            C3   1.281       .  A
C3          C872   1.462       .  S
O4          Zr16   2.445       .  S
O4            C6   1.290       .  A
O5          Zr40   2.455       .  S
O5            C6   1.291       .  A
C6          C785   1.495       .  S
O7          Zr16   2.437       .  S
O7            C9   1.287       .  A
O8          Zr39   2.353       .  S
O8            C9   1.273       .  A
C9          C833   1.436       .  S
O10         Zr13   2.446       .  S
O10          C12   1.289       .  A
O11         Zr40   2.341       .  S
O11          C12   1.270       .  A
C12         C848   1.443       .  S
Zr13         O14   2.434       .  S
Zr13         O15   2.436       .  S
Zr13         O19   2.369       .  S
Zr13         O20   2.358       .  S
Zr13         O43   2.360       .  S
Zr13         O45   2.372       .  S
O14          H57   0.990       .  S
O15          H56   0.990       .  S
O15          H60   0.990       .  S
Zr16         O17   2.434       .  S
Zr16         O18   2.434       .  S
Zr16         O20   2.374       .  S
Zr16         O19   2.358       .  S
Zr16         O44   2.379       .  S
Zr16         O46   2.359       .  S
O17          H58   0.990       .  S
O17          H61   0.990       .  S
O18          H51   0.990       .  S
O19         Zr39   2.373       .  S
O20         Zr40   2.380       .  S
O20          H47   0.965       .  S
O21         Zr33   2.423       .  S
O21          C23   1.280       .  A
O22         Zr40   2.415       .  S
O22          C23   1.286       .  A
C23         C860   1.473       .  S
O24         Zr36   2.450       .  S
O24          C26   1.290       .  A
O25         Zr39   2.398       .  S
O25          C26   1.279       .  A
C26         C824   1.460       .  S
O27         Zr36   2.484       .  S
O27          C29   1.296       .  A
O28         Zr40   2.380       .  S
O28          C29   1.276       .  A
C29         C809   1.466       .  S
O30         Zr33   2.463       .  S
O30          C32   1.292       .  A
O31         Zr39   2.394       .  S
O31          C32   1.280       .  A
C32         C800   1.480       .  S
Zr33         O34   2.434       .  S
Zr33         O35   2.434       .  S
Zr33         O41   2.400       .  S
Zr33         O42   2.352       .  S
Zr33         O45   2.364       .  S
Zr33         O43   2.381       .  S
O34          H54   0.989       .  S
O34          H59   0.990       .  S
O35          H55   0.990       .  S
Zr36         O37   2.435       .  S
Zr36         O38   2.430       .  S
Zr36         O42   2.377       .  S
Zr36         O41   2.357       .  S
Zr36         O46   2.362       .  S
Zr36         O44   2.372       .  S
O37          H53   0.990       .  S
O38          H52   0.990       .  S
O38          H62   0.990       .  S
Zr39         O42   2.361       .  S
Zr39         O44   2.386       .  S
Zr39         O45   2.377       .  S
Zr40         O41   2.394       .  S
Zr40         O43   2.383       .  S
Zr40         O46   2.368       .  S
O41          H49   0.965       .  S
O44          H48   0.966       .  S
O45          H50   0.966       .  S
O63         Zr75   2.382       .  S
O63          C65   1.276       .  A
O64        Zr101   2.496       .  S
O64          C65   1.300       .  A
C65         C749   1.477       .  S
O66         Zr78   2.400       .  S
O66          C68   1.259       .  A
O67        Zr102   2.478       .  S
O67          C68   1.290       .  A
C68         C713   1.457       .  S
O69         Zr78   2.439   1_554  S
O69          C71   1.286       .  A
O70        Zr101   2.421   1_554  S
O70          C71   1.285       .  A
C71         C797   1.467       .  S
O72         Zr75   2.442       .  S
O72          C74   1.285       .  A
O73        Zr102   2.382       .  S
O73          C74   1.282       .  A
C74         C761   1.441       .  S
Zr75         O76   2.436       .  S
Zr75         O77   2.433       .  S
Zr75         O81   2.381       .  S
Zr75         O82   2.339       .  S
Zr75        O105   2.349       .  S
Zr75        O107   2.365       .  S
O76         H119   0.991       .  S
O77         H118   0.990       .  S
O77         H122   0.990       .  S
Zr78         O79   2.439       .  S
Zr78         O80   2.434       .  S
Zr78         O82   2.402       .  S
Zr78         O81   2.340       .  S
Zr78        O106   2.362       .  S
Zr78        O108   2.394       .  S
O79         H120   0.990       .  S
O79         H123   0.990       .  S
O80         H113   0.990   1_556  S
O81        Zr101   2.375       .  S
O82        Zr102   2.406       .  S
O82         H109   0.964       .  S
O83         Zr95   2.441       .  S
O83          C85   1.289       .  A
O84        Zr102   2.458       .  S
O84          C85   1.293       .  A
C85         C788   1.494       .  S
O86         Zr98   2.400       .  S
O86          C88   1.270       .  A
O87        Zr101   2.506       .  S
O87          C88   1.292       .  A
C88         C740   1.497       .  S
O89         Zr98   2.443       .  S
O89          C91   1.286       .  A
O90        Zr102   2.414       .  S
O90          C91   1.286       .  A
C91         C728   1.466       .  S
O92         Zr95   2.427       .  S
O92          C94   1.287       .  A
O93        Zr101   2.386       .  S
O93          C94   1.283       .  A
C94         C773   1.464       .  S
Zr95         O96   2.435       .  S
Zr95         O97   2.435       .  S
Zr95        O103   2.368       .  S
Zr95        O104   2.352       .  S
Zr95        O107   2.374       .  S
Zr95        O105   2.357       .  S
O96         H116   0.990       .  S
O96         H121   0.990       .  S
O97         H117   0.990       .  S
Zr98         O99   2.436       .  S
Zr98        O100   2.436       .  S
Zr98        O104   2.365       .  S
Zr98        O103   2.365       .  S
Zr98        O108   2.357       .  S
Zr98        O106   2.393       .  S
O99         H115   0.990       .  S
O100        H114   0.990       .  S
O100        H124   0.990       .  S
Zr101       O104   2.389       .  S
Zr101       O106   2.396       .  S
Zr101       O107   2.418       .  S
Zr102       O103   2.379       .  S
Zr102       O105   2.390       .  S
Zr102       O108   2.393       .  S
O103        H111   0.964       .  S
O106        H110   0.966       .  S
O107        H112   0.966       .  S
O125      Zr1017   2.389   1_455  S
O125        C127   1.274       .  A
O126      Zr1043   2.507   1_455  S
O126        C127   1.295   1_556  A
C127        C665   1.482       .  S
O128       Zr140   2.375       .  S
O128        C130   1.275       .  A
O129       Zr164   2.594       .  S
O129        C130   1.322       .  A
C130        C689   1.512       .  S
O131       Zr140   2.504   1_556  S
O131       C1013   1.297       .  A
O132      Zr1043   2.369       .  S
O132        C133   1.274       .  A
C133       O1011   1.297       .  A
C133        C752   1.487   1_655  S
O134       Zr137   2.435       .  S
O134        C136   1.285       .  A
O135       Zr164   2.464       .  S
O135        C136   1.295       .  A
C136        C653   1.485       .  S
Zr137      O1005   2.389       .  S
Zr137       O138   2.428       .  S
Zr137       O139   2.430       .  S
Zr137       O143   2.369       .  S
Zr137       O144   2.364       .  S
Zr137       O167   2.336       .  S
Zr137       O169   2.399       .  S
O138       H1061   0.990       .  S
O139        H180   0.989       .  S
O139        H184   0.990       .  S
Zr140       O141   2.438       .  S
Zr140       O142   2.437   1_554  S
Zr140       O144   2.401       .  S
Zr140       O143   2.319       .  S
Zr140       O168   2.358   1_554  S
Zr140       O170   2.403   1_554  S
O141        H182   0.990       .  S
O141        H185   0.990       .  S
O142        H175   0.990       .  S
O143       Zr163   2.367   1_554  S
O144       Zr164   2.397       .  S
O144        H171   0.965       .  S
O145       Zr157   2.375   1_554  S
O145        C147   1.269       .  A
O146       Zr164   2.577       .  S
O146        C147   1.315       .  A
C147        C701   1.503   1_565  S
O148       Zr160   2.419       .  S
O148        C150   1.283       .  A
O149       Zr163   2.467       .  S
O149        C150   1.296       .  A
C150        C641   1.480       .  S
O151       Zr160   2.510       .  S
O151        C153   1.302       .  A
O152       Zr164   2.418       .  S
O152        C153   1.287   1_554  A
C153        C737   1.506       .  S
O154       Zr157   2.488       .  S
O154        C156   1.295       .  A
O155       Zr163   2.376       .  S
O155        C156   1.279       .  A
C156        C677   1.478   1_565  S
Zr157       O158   2.438       .  S
Zr157       O159   2.433   1_566  S
Zr157       O165   2.403       .  S
Zr157       O166   2.332       .  S
Zr157       O169   2.340   1_556  S
Zr157       O167   2.404   1_556  S
O158        H178   0.990       .  S
O158        H183   0.991   1_565  S
O159        H179   0.989       .  S
Zr160       O161   2.434       .  S
Zr160       O162   2.433       .  S
Zr160       O166   2.384       .  S
Zr160       O165   2.350       .  S
Zr160       O170   2.335       .  S
Zr160       O168   2.405       .  S
O161        H177   0.990       .  S
O162        H176   0.990       .  S
O162        H186   0.990       .  S
Zr163      O1006   2.507       .  S
Zr163      O1012   2.369       .  S
Zr163       O166   2.382       .  S
Zr163       O168   2.387       .  S
Zr163       O169   2.383   1_556  S
Zr164       O165   2.418   1_554  S
Zr164       O167   2.401       .  S
Zr164       O170   2.386   1_554  S
O165        H173   0.964       .  S
O168        H172   0.966       .  S
O169        H174   0.966       .  S
H181       O1018   0.990       .  S
O187      Zr1079   2.446       .  S
O187        C189   1.275   1_655  A
O188      Zr1105   2.482   1_455  S
O188        C189   1.287       .  A
C189        C593   1.480       .  S
O190       Zr202   2.359       .  S
O190        C192   1.272       .  A
O191       Zr226   2.588       .  S
O191        C192   1.320       .  A
C192        C617   1.513       .  S
O193       Zr202   2.431       .  S
O193       C1075   1.284       .  A
O194      Zr1105   2.350   1_455  S
O194        C195   1.276       .  A
C195       O1073   1.284   1_455  A
C195        C845   1.437       .  S
O196       Zr199   2.406       .  S
O196        C198   1.279       .  A
O197       Zr226   2.472       .  S
O197        C198   1.295       .  A
C198        C644   1.481       .  S
Zr199      O1067   2.446       .  S
Zr199       O200   2.450       .  S
Zr199       O201   2.470       .  S
Zr199       O205   2.366       .  S
Zr199       O206   2.368       .  S
Zr199       O229   2.350       .  S
Zr199       O231   2.408       .  S
O200       H1123   0.990       .  S
O201        H242   0.990       .  S
O201        H246   0.990       .  S
Zr202       O203   2.437       .  S
Zr202       O204   2.435       .  S
Zr202       O206   2.384       .  S
Zr202       O205   2.316       .  S
Zr202       O230   2.358       .  S
Zr202       O232   2.369       .  S
O203        H244   0.990       .  S
O203        H247   0.990       .  S
O204        H237   0.990       .  S
O205       Zr225   2.373       .  S
O206       Zr226   2.383       .  S
O206        H233   0.965       .  S
O207       Zr219   2.370       .  S
O207        C209   1.264       .  A
O208       Zr226   2.584       .  S
O208        C209   1.315       .  A
C209        C629   1.507   1_565  S
O210       Zr222   2.396       .  S
O210        C212   1.279       .  A
O211       Zr225   2.506       .  S
O211        C212   1.302       .  A
C212        C656   1.486       .  S
O213       Zr222   2.447       .  S
O213        C215   1.290       .  A
O214       Zr226   2.353       .  S
O214        C215   1.278       .  A
C215        C836   1.447       .  S
O216       Zr219   2.481       .  S
O216        C218   1.290       .  A
O217       Zr225   2.366       .  S
O217        C218   1.268       .  A
C218        C608   1.476       .  S
Zr219       O220   2.443   1_565  S
Zr219       O221   2.435   1_565  S
Zr219       O227   2.411       .  S
Zr219       O228   2.342       .  S
Zr219       O231   2.350       .  S
Zr219       O229   2.404       .  S
O220        H240   0.990       .  S
O220        H245   0.990       .  S
O221        H241   0.989       .  S
Zr222       O223   2.434       .  S
Zr222       O224   2.434       .  S
Zr222       O228   2.381       .  S
Zr222       O227   2.344       .  S
Zr222       O232   2.341       .  S
Zr222       O230   2.375       .  S
O223        H239   0.990       .  S
O224        H238   0.990       .  S
O224        H248   0.990       .  S
Zr225      O1068   2.482       .  S
Zr225      O1074   2.350       .  S
Zr225       O228   2.375       .  S
Zr225       O230   2.388       .  S
Zr225       O231   2.398       .  S
Zr226       O227   2.420       .  S
Zr226       O229   2.378       .  S
Zr226       O232   2.393       .  S
O227        H235   0.964       .  S
O230        H234   0.966       .  S
O231        H236   0.962       .  S
H243       O1080   0.990       .  S
O249       Zr261   2.466       .  S
O249        C251   1.289       .  A
O250       Zr287   2.358       .  S
O250        C251   1.275       .  A
C251        C821   1.463       .  S
O252       Zr264   2.407   1_556  S
O252        C254   1.280       .  A
O253       Zr288   2.424   1_556  S
O253        C254   1.286       .  A
C254        C548   1.469       .  S
O255       Zr264   2.387       .  S
O255        C257   1.263       .  A
O256       Zr287   2.490       .  S
O256        C257   1.293       .  A
C257        C716   1.457       .  S
O258       Zr261   2.317       .  S
O258        C260   1.264       .  A
O259       Zr288   2.609       .  S
O259        C260   1.324       .  A
C260        C692   1.505       .  S
Zr261       O262   2.434       .  S
Zr261       O263   2.436       .  S
Zr261       O267   2.332       .  S
Zr261       O268   2.405       .  S
Zr261       O291   2.395       .  S
Zr261       O293   2.329       .  S
O262        H305   0.990       .  S
O263        H304   0.990       .  S
O263        H308   0.990       .  S
Zr264       O265   2.425   1_554  S
Zr264       O266   2.433   1_554  S
Zr264       O268   2.352       .  S
Zr264       O267   2.390       .  S
Zr264       O292   2.369       .  S
Zr264       O294   2.339       .  S
O265        H306   0.989       .  S
O265        H309   0.990       .  S
O266        H299   0.990       .  S
O267       Zr287   2.357       .  S
O268       Zr288   2.379       .  S
O268        H295   0.965       .  S
O269       Zr281   2.541       .  S
O269        C271   1.307       .  A
O270       Zr288   2.374       .  S
O270        C271   1.278       .  A
C271        C569   1.513       .  S
O272       Zr284   2.591       .  S
O272        C274   1.314       .  A
O273       Zr287   2.331       .  S
O273        C274   1.269       .  A
C274        C581   1.497       .  S
O275       Zr284   2.412       .  S
O275        C277   1.275       .  A
O276       Zr288   2.547       .  S
O276        C277   1.305       .  A
C277        C704   1.527       .  S
O278       Zr281   2.428       .  S
O278        C280   1.288       .  A
O279       Zr287   2.425       .  S
O279        C280   1.289       .  A
C280        C557   1.471       .  S
Zr281       O282   2.437       .  S
Zr281       O283   2.434       .  S
Zr281       O289   2.338       .  S
Zr281       O290   2.411       .  S
Zr281       O293   2.396       .  S
Zr281       O291   2.352       .  S
O282        H302   0.990       .  S
O282        H307   0.990       .  S
O283        H303   0.990       .  S
Zr284       O285   2.434       .  S
Zr284       O286   2.435       .  S
Zr284       O290   2.342       .  S
Zr284       O289   2.435       .  S
Zr284       O294   2.423       .  S
Zr284       O292   2.315       .  S
O285        H301   0.990       .  S
O286        H300   0.990       .  S
O286        H310   0.990       .  S
Zr287       O290   2.388       .  S
Zr287       O292   2.378       .  S
Zr287       O293   2.377       .  S
Zr288       O289   2.432       .  S
Zr288       O291   2.385       .  S
Zr288       O294   2.416       .  S
O289        H297   0.965       .  S
O292        H296   0.961       .  S
O293        H298   0.966       .  S
O311       Zr323   2.452       .  S
O311        C313   1.287       .  A
O312       Zr349   2.373       .  S
O312        C313   1.277       .  A
C313        C725   1.453       .  S
O314       Zr326   2.434       .  S
O314        C316   1.286       .  A
O315       Zr350   2.399       .  S
O315        C316   1.283       .  A
C316        C560   1.475       .  S
O317       Zr326   2.385       .  S
O317        C319   1.280       .  A
O318       Zr349   2.468       .  S
O318        C319   1.294       .  A
C319        C812   1.465       .  S
O320       Zr323   2.329       .  S
O320        C322   1.266       .  A
O321       Zr350   2.602       .  S
O321        C322   1.323       .  A
C322        C620   1.501       .  S
Zr323       O324   2.435       .  S
Zr323       O325   2.436       .  S
Zr323       O329   2.340       .  S
Zr323       O330   2.398       .  S
Zr323       O353   2.392       .  S
Zr323       O355   2.330       .  S
O324        H367   0.990       .  S
O325        H366   0.990       .  S
O325        H370   0.990       .  S
Zr326       O327   2.431       .  S
Zr326       O328   2.434       .  S
Zr326       O330   2.325       .  S
Zr326       O329   2.384       .  S
Zr326       O354   2.345       .  S
Zr326       O356   2.361       .  S
O327        H368   0.990       .  S
O327        H371   0.990       .  S
O328        H361   0.990       .  S
O329       Zr349   2.371       .  S
O330       Zr350   2.390       .  S
O330        H357   0.965       .  S
O331       Zr343   2.528       .  S
O331        C333   1.305       .  A
O332       Zr350   2.374       .  S
O332        C333   1.278       .  A
C333        C521   1.502       .  S
O334       Zr346   2.544       .  S
O334        C336   1.302       .  A
O335       Zr349   2.377       .  S
O335        C336   1.273       .  A
C336        C533   1.515       .  S
O337       Zr346   2.386       .  S
O337        C339   1.277       .  A
O338       Zr350   2.582       .  S
O338        C339   1.320       .  A
C339        C632   1.505       .  S
O340       Zr343   2.418       .  S
O340        C342   1.285       .  A
O341       Zr349   2.427       .  S
O341        C342   1.290       .  A
C342        C545   1.470       .  S
Zr343       O344   2.436       .  S
Zr343       O345   2.434       .  S
Zr343       O351   2.332       .  S
Zr343       O352   2.418       .  S
Zr343       O355   2.385       .  S
Zr343       O353   2.348       .  S
O344        H364   0.990       .  S
O344        H369   0.990       .  S
O345        H365   0.990       .  S
Zr346       O347   2.434       .  S
Zr346       O348   2.438       .  S
Zr346       O352   2.355       .  S
Zr346       O351   2.428       .  S
Zr346       O356   2.412       .  S
Zr346       O354   2.326       .  S
O347        H363   0.990       .  S
O348        H362   0.990       .  S
O348        H372   0.990       .  S
Zr349       O352   2.378       .  S
Zr349       O354   2.374       .  S
Zr349       O355   2.382       .  S
Zr350       O351   2.403       .  S
Zr350       O353   2.391       .  S
Zr350       O356   2.402       .  S
O351        H359   0.963       .  S
O354        H358   0.962       .  S
O355        H360   0.966       .  S
O373       Zr385   2.411   1_565  S
O373        C375   1.278       .  A
O374       Zr411   2.493   1_565  S
O374        C375   1.295       .  A
C375        C668   1.482       .  S
O376       Zr388   2.366       .  S
O376        C378   1.271       .  A
O377       Zr412   2.553       .  S
O377        C378   1.312       .  A
C378        C584   1.492       .  S
O379       Zr388   2.428       .  S
O379        C381   1.284   1_545  A
O380       Zr411   2.403       .  S
O380        C381   1.284   1_545  A
C381        C869   1.453       .  S
O382       Zr385   2.439       .  S
O382        C384   1.287       .  A
O383       Zr412   2.440       .  S
O383        C384   1.290       .  A
C384        C509   1.486       .  S
Zr385       O386   2.429       .  S
Zr385       O387   2.432       .  S
Zr385       O391   2.378       .  S
Zr385       O392   2.364       .  S
Zr385       O415   2.332       .  S
Zr385       O417   2.376       .  S
O386        H429   0.991       .  S
O387        H428   0.988   1_455  S
O387        H432   0.990   1_455  S
Zr388       O389   2.437       .  S
Zr388       O390   2.436       .  S
Zr388       O392   2.375       .  S
Zr388       O391   2.333       .  S
Zr388       O416   2.359       .  S
Zr388       O418   2.387       .  S
O389        H430   0.990       .  S
O389        H433   0.990       .  S
O390        H423   0.990       .  S
O391       Zr411   2.376       .  S
O392       Zr412   2.390       .  S
O392        H419   0.964       .  S
O393       Zr405   2.376       .  S
O393        C395   1.276       .  A
O394       Zr412   2.528       .  S
O394        C395   1.308       .  A
C395       C1452   1.487   1_455  S
O396       Zr408   2.415       .  S
O396        C398   1.284       .  A
O397       Zr411   2.489       .  S
O397        C398   1.299       .  A
C398        C497   1.502       .  S
O399       Zr408   2.433       .  S
O399        C401   1.288       .  A
O400       Zr412   2.421       .  S
O400        C401   1.287       .  A
C401        C857   1.476       .  S
O402       Zr405   2.440       .  S
O402        C404   1.286       .  A
O403       Zr411   2.402       .  S
O403        C404   1.287       .  A
C404       C1485   1.483       .  S
Zr405       O406   2.437       .  S
Zr405      O1287   2.436   1_455  S
Zr405       O413   2.364       .  S
Zr405       O414   2.336       .  S
Zr405       O417   2.348       .  S
Zr405       O415   2.389       .  S
O406        H426   0.990       .  S
O406       H1311   0.990   1_455  S
O407      Zr1285   2.436       .  S
O407        H427   0.990       .  S
Zr408       O409   2.437       .  S
Zr408       O410   2.434       .  S
Zr408       O414   2.363       .  S
Zr408       O413   2.367       .  S
Zr408       O418   2.352       .  S
Zr408       O416   2.364       .  S
O409        H425   0.991       .  S
O410        H424   0.990       .  S
O410        H434   0.990       .  S
Zr411       O414   2.367       .  S
Zr411       O416   2.393       .  S
Zr411       O417   2.400       .  S
Zr412       O413   2.404       .  S
Zr412       O415   2.406       .  S
Zr412       O418   2.401       .  S
O413        H421   0.962       .  S
O416        H420   0.966       .  S
O417        H422   0.966       .  S
H431       O1286   0.990       .  S
O435       Zr447   2.413       .  S
O435        C437   1.264   1_545  A
O436       Zr473   2.445   1_565  S
O436        C437   1.280       .  A
C437        C596   1.468       .  S
O438       Zr450   2.381       .  S
O438        C440   1.277       .  A
O439       Zr474   2.526       .  S
O439        C440   1.307       .  A
C440        C536   1.487       .  S
O441       Zr450   2.413       .  S
O441        C443   1.280       .  A
O442       Zr473   2.383       .  S
O442        C443   1.277       .  A
C443        C776   1.458   1_545  S
O444       Zr447   2.436       .  S
O444        C446   1.284       .  A
O445       Zr474   2.445       .  S
O445        C446   1.291       .  A
C446        C500   1.495       .  S
Zr447       O448   2.423   1_545  S
Zr447       O449   2.428       .  S
Zr447       O453   2.364       .  S
Zr447       O454   2.345       .  S
Zr447       O477   2.333       .  S
Zr447       O479   2.398       .  S
O448        H491   0.990   1_565  S
O449        H494   0.989       .  S
O449       H1370   0.987       .  S
Zr450       O451   2.440       .  S
Zr450       O452   2.434       .  S
Zr450       O454   2.380       .  S
Zr450       O453   2.339       .  S
Zr450       O478   2.380       .  S
Zr450       O480   2.343       .  S
O451        H492   0.990       .  S
O451        H495   0.990       .  S
O452        H485   0.990       .  S
O453       Zr473   2.356       .  S
O454       Zr474   2.400       .  S
O454        H481   0.965       .  S
O455       Zr467   2.367   1_655  S
O455        C457   1.273   1_655  A
O456       Zr474   2.515       .  S
O456        C457   1.304       .  A
C457       C1404   1.478   1_455  S
O458       Zr470   2.438       .  S
O458        C460   1.286       .  A
O459       Zr473   2.431       .  S
O459        C460   1.288       .  A
C460        C512   1.484       .  S
O461       Zr470   2.436       .  S
O461        C463   1.279       .  A
O462       Zr474   2.381       .  S
O462        C463   1.272       .  A
C463        C764   1.463       .  S
O464      Zr1347   2.444       .  S
O464        C466   1.285       .  A
O465       Zr473   2.419       .  S
O465       C1346   1.284       .  A
C466       O1345   1.284       .  A
C466        C680   1.471       .  S
Zr467      O1344   2.445   1_455  S
Zr467       O468   2.440   1_455  S
Zr467      O1349   2.436   1_455  S
Zr467       O475   2.385       .  S
Zr467       O476   2.368       .  S
Zr467       O479   2.385       .  S
Zr467       O477   2.419       .  S
O468        H488   0.990       .  S
O468       H1373   0.990       .  S
O469      Zr1347   2.436       .  S
O469        H489   0.990       .  S
Zr470       O471   2.436       .  S
Zr470       O472   2.439       .  S
Zr470       O476   2.387       .  S
Zr470       O475   2.372       .  S
Zr470       O480   2.393       .  S
Zr470       O478   2.392       .  S
O471        H487   0.990       .  S
O472        H486   0.990       .  S
O472        H496   0.990       .  S
Zr473       O476   2.340       .  S
Zr473       O478   2.382       .  S
Zr473       O479   2.398       .  S
Zr474       O475   2.434       .  S
Zr474       O477   2.405       .  S
Zr474       O480   2.430       .  S
O475        H483   0.965       .  S
O478        H482   0.966       .  S
O479        H484   0.963       .  S
H490       O1329   0.987       .  S
H493       O1348   0.990       .  S
C497        C498   1.414       .  A
C497        C502   1.410       .  A
C498        C499   1.396       .  A
C498        H503   1.082       .  S
C499        C500   1.406       .  A
C499        O504   1.372       .  S
C500        C501   1.415       .  A
C501        C502   1.411       .  A
C501        H505   1.083       .  S
C502        O506   1.370       .  S
O504        H508   0.992       .  S
O506        H507   0.992       .  S
C509        C510   1.407       .  A
C509        C514   1.413   1_554  A
C510        C511   1.405   1_554  A
C510        H515   1.084       .  S
C511        C512   1.412       .  A
C511        O516   1.372       .  S
C512        C513   1.403       .  A
C513        C514   1.398       .  A
C513        H517   1.083       .  S
C514        O518   1.373       .  S
O516        H520   0.992       .  S
O518        H519   0.992       .  S
C521        C522   1.415       .  A
C521        C526   1.408       .  A
C522        C523   1.406       .  A
C522        H527   1.083       .  S
C523        C524   1.404       .  A
C523        O528   1.371       .  S
C524       C1337   1.478       .  S
C524        C525   1.414       .  A
C525        C526   1.410       .  A
C525        H529   1.084       .  S
C526        O530   1.371       .  S
O528        H532   0.991       .  S
O530        H531   0.992       .  S
C533        C534   1.418       .  A
C533        C538   1.413       .  A
C534        C535   1.401       .  A
C534        H539   1.083       .  S
C535        C536   1.403       .  A
C535        O540   1.372       .  S
C536        C537   1.414       .  A
C537        C538   1.419       .  A
C537        H541   1.083       .  S
C538        O542   1.370       .  S
O540        H544   0.991       .  S
O542        H543   0.992       .  S
C545        C546   1.398       .  A
C545        C550   1.414       .  A
C546        C547   1.388       .  A
C546        H551   1.084       .  S
C547        C548   1.411       .  A
C547        O552   1.371       .  S
C548        C549   1.400       .  A
C549        C550   1.400       .  A
C549        H553   1.084       .  S
C550        O554   1.372       .  S
O552        H556   0.992       .  S
O554        H555   0.992       .  S
C557        C558   1.402       .  A
C557        C562   1.410       .  A
C558        C559   1.397       .  A
C558        H563   1.084       .  S
C559        C560   1.412       .  A
C559        O564   1.372       .  S
C560        C561   1.404       .  A
C561        C562   1.393       .  A
C561        H565   1.084       .  S
C562        O566   1.372       .  S
O564        H568   0.992       .  S
O566        H567   0.992       .  S
C569        C570   1.405       .  A
C569        C574   1.427       .  A
C570        C571   1.414       .  A
C570        H575   1.083       .  S
C571        C572   1.418       .  A
C571        O576   1.373       .  S
C572       C1275   1.487       .  S
C572        C573   1.398       .  A
C573        C574   1.407       .  A
C573        H577   1.084       .  S
C574        O578   1.372       .  S
O576        H580   0.992       .  S
O578        H579   0.992       .  S
C581        C582   1.410       .  A
C581        C586   1.415       .  A
C582        C583   1.420       .  A
C582        H587   1.083       .  S
C583        C584   1.416       .  A
C583        O588   1.371       .  S
C584        C585   1.406       .  A
C585        C586   1.407       .  A
C585        H589   1.084       .  S
C586        O590   1.372       .  S
O588        H592   0.992       .  S
O590        H591   0.992       .  S
C593        C594   1.407       .  A
C593        C598   1.394       .  A
C594        C595   1.420       .  A
C594        H599   1.082       .  S
C595        C596   1.419       .  A
C595        O600   1.371       .  S
C596        C597   1.385       .  A
C597        C598   1.377       .  A
C597       H1481   1.081       .  S
C598       O1482   1.352   1_455  S
O600        H604   0.992       .  S
H601       C1477   1.081       .  S
O602       C1478   1.352       .  S
O602        H603   0.985       .  S
C605       C1284   1.483       .  S
C605        C606   1.400   1_545  A
C605        C610   1.418       .  A
C606        C607   1.384       .  A
C606        H611   1.083       .  S
C607        C608   1.415       .  A
C607        O612   1.373       .  S
C608        C609   1.403   1_565  A
C609        C610   1.407       .  A
C609        H613   1.083       .  S
C610        O614   1.371       .  S
O612        H616   0.992       .  S
O614        H615   0.992       .  S
C617        C618   1.415       .  A
C617        C622   1.413       .  A
C618        C619   1.412       .  A
C618        H623   1.084       .  S
C619        C620   1.412       .  A
C619        O624   1.372       .  S
C620        C621   1.420       .  A
C621        C622   1.425       .  A
C621        H625   1.083       .  S
C622        O626   1.371       .  S
O624        H628   0.992       .  S
O626        H627   0.992       .  S
C629        C630   1.411       .  A
C629        C634   1.418       .  A
C630        C631   1.422       .  A
C630        H635   1.083       .  S
C631        C632   1.418       .  A
C631        O636   1.371       .  S
C632        C633   1.408       .  A
C633        C634   1.414       .  A
C633        H637   1.084       .  S
C634        O638   1.372       .  S
O636        H640   0.992       .  S
O638        H639   0.992       .  S
C641        C642   1.397       .  A
C641        C646   1.416       .  A
C642        C643   1.400       .  A
C642        H647   1.084       .  S
C643        C644   1.416       .  A
C643        O648   1.373       .  S
C644        C645   1.401       .  A
C645        C646   1.406       .  A
C645        H649   1.083       .  S
C646        O650   1.372       .  S
O648        H652   0.992       .  S
O650        H651   0.992       .  S
C653        C654   1.403       .  A
C653        C658   1.408       .  A
C654        C655   1.411       .  A
C654        H659   1.084       .  S
C655        C656   1.410       .  A
C655        O660   1.371       .  S
C656        C657   1.408       .  A
C657        C658   1.407       .  A
C657        H661   1.084       .  S
C658        O662   1.371       .  S
O660        H664   0.991       .  S
O662        H663   0.992       .  S
C665        C666   1.412       .  A
C665        C670   1.401       .  A
C666        C667   1.409       .  A
C666       H1551   1.082       .  S
C667        C668   1.403       .  A
C667        O672   1.372       .  S
C668        C669   1.411       .  A
C669        C670   1.407       .  A
C669        H673   1.083       .  S
C670        O674   1.370       .  S
H671       C1546   1.082       .  S
O672       H1556   0.992       .  S
O674        H675   0.991       .  S
H676       O1552   0.992       .  S
C677        C678   1.404       .  A
C677        C682   1.412   1_545  A
C678        C679   1.408       .  A
C678        H683   1.083       .  S
C679        C680   1.410       .  A
C679        O684   1.371       .  S
C680        C681   1.396       .  A
C681        C682   1.396   1_545  A
C681        H685   1.084   1_545  S
C682        O686   1.372       .  S
O684        H688   0.992       .  S
O686        H687   0.992       .  S
C689        C690   1.415       .  A
C689        C694   1.413       .  A
C690        C691   1.420       .  A
C690        H695   1.084       .  S
C691        C692   1.415       .  A
C691        O696   1.371       .  S
C692        C693   1.419       .  A
C693        C694   1.420       .  A
C693        H697   1.084   1_554  S
C694        O698   1.371   1_554  S
O696        H700   0.992       .  S
O698        H699   0.992       .  S
C701        C702   1.418       .  A
C701        C706   1.405       .  A
C702        C703   1.421       .  A
C702        H707   1.081       .  S
C703        C704   1.412       .  A
C703        O708   1.371       .  S
C704        C705   1.420       .  A
C705        C706   1.413       .  A
C705        H709   1.080       .  S
C706        O710   1.371   1_545  S
O708        H712   0.992       .  S
O710        H711   0.992       .  S
C713        C714   1.405       .  A
C713        C718   1.404       .  A
C714        C715   1.403       .  A
C714        H719   1.084       .  S
C715        C716   1.409   1_556  A
C715        O720   1.372       .  S
C716        C717   1.400   1_554  A
C717        C718   1.397       .  A
C717        H721   1.085   1_556  S
C718        O722   1.373       .  S
O720        H724   0.992       .  S
O722        H723   0.992       .  S
C725        C726   1.395       .  A
C725        C730   1.407       .  A
C726        C727   1.390       .  A
C726        H731   1.082       .  S
C727        C728   1.407       .  A
C727        O732   1.369       .  S
C728        C729   1.403       .  A
C729        C730   1.401       .  A
C729        H733   1.084       .  S
C730        O734   1.371       .  S
O732        H736   0.992       .  S
O734        H735   0.992       .  S
C737        C738   1.416       .  A
C737        C742   1.410       .  A
C738        C739   1.415       .  A
C738        H743   1.083   1_556  S
C739        C740   1.408       .  A
C739        O744   1.370   1_556  S
C740        C741   1.410       .  A
C741        C742   1.403       .  A
C741        H745   1.084       .  S
C742        O746   1.372       .  S
O744        H748   0.992       .  S
O746        H747   0.992       .  S
C749        C750   1.416       .  A
C749        C754   1.399       .  A
C750        C751   1.403       .  A
C750        H755   1.084       .  S
C751        C752   1.401       .  A
C751        O756   1.371       .  S
C752        C753   1.415       .  A
C753        C754   1.399       .  A
C753        H757   1.082       .  S
C754        O758   1.372       .  S
O756        H760   0.992   1_556  S
O758        H759   0.992       .  S
C761        C762   1.399       .  A
C761        C766   1.400       .  A
C762        C763   1.397       .  A
C762        H767   1.084       .  S
C763        C764   1.411       .  A
C763        O768   1.372       .  S
C764        C765   1.399       .  A
C765        C766   1.383       .  A
C765        H769   1.079       .  S
C766        O770   1.375       .  S
O768        H772   0.992       .  S
O770        H771   0.992       .  S
C773        C774   1.403       .  A
C773        C778   1.410       .  A
C774        C775   1.390       .  A
C774        H779   1.084       .  S
C775        C776   1.407       .  A
C775        O780   1.374   1_565  S
C776        C777   1.400       .  A
C777        C778   1.391       .  A
C777        H781   1.084       .  S
C778        O782   1.373       .  S
O780        H784   0.992   1_545  S
O782        H783   0.992       .  S
C785        C786   1.411       .  A
C785        C790   1.411       .  A
C786        C787   1.415       .  A
C786        H791   1.083       .  S
C787        C788   1.413       .  A
C787        O792   1.371       .  S
C788        C789   1.404       .  A
C789        C790   1.395       .  A
C789        H793   1.084       .  S
C790        O794   1.372       .  S
O792        H796   0.992       .  S
O794        H795   0.992       .  S
C797        C798   1.398       .  A
C797        C802   1.403       .  A
C798        C799   1.401       .  A
C798        H803   1.084       .  S
C799        C800   1.415       .  A
C799        O804   1.372       .  S
C800        C801   1.403       .  A
C801        C802   1.399       .  A
C801        H805   1.084       .  S
C802        O806   1.366       .  S
O804        H808   0.991       .  S
O806        H807   0.992       .  S
C809        C810   1.403       .  A
C809        C814   1.399       .  A
C810        C811   1.398       .  A
C810        H815   1.079       .  S
C811        C812   1.401       .  A
C811        O816   1.372       .  S
C812        C813   1.414       .  A
C813        C814   1.402       .  A
C813        H817   1.084       .  S
C814        O818   1.371       .  S
O816        H820   0.992       .  S
O818        H819   0.992       .  S
C821        C822   1.402       .  A
C821        C826   1.408       .  A
C822        C823   1.388       .  A
C822        H827   1.085       .  S
C823        C824   1.402       .  A
C823        O828   1.373       .  S
C824        C825   1.404       .  A
C825        C826   1.405       .  A
C825        H829   1.084       .  S
C826        O830   1.372       .  S
O828        H832   0.992       .  S
O830        H831   0.992       .  S
C833        C834   1.400       .  A
C833        C838   1.396       .  A
C834        C835   1.387       .  A
C834        H839   1.085       .  S
C835        C836   1.403       .  A
C835        O840   1.372       .  S
C836        C837   1.406       .  A
C837        C838   1.387       .  A
C837        H841   1.084       .  S
C838        O842   1.372       .  S
O840        H844   0.992       .  S
O842        H843   0.992       .  S
C845        C846   1.394       .  A
C845        C850   1.406       .  A
C846        C847   1.389       .  A
C846        H851   1.084       .  S
C847        C848   1.410       .  A
C847        O852   1.372       .  S
C848        C849   1.395       .  A
C849        C850   1.384       .  A
C849        H853   1.084       .  S
C850        O854   1.371       .  S
O852        H856   0.992       .  S
O854        H855   0.992       .  S
C857        C858   1.409       .  A
C857        C862   1.408       .  A
C858        C859   1.389       .  A
C858        H863   1.083       .  S
C859        C860   1.404       .  A
C859        O864   1.372       .  S
C860        C861   1.408       .  A
C861        C862   1.399       .  A
C861        H865   1.082       .  S
C862        O866   1.372       .  S
O864        H868   0.992       .  S
O866        H867   0.992       .  S
C869        C870   1.398       .  A
C869        C874   1.405       .  A
C870        C871   1.394       .  A
C870        H875   1.084       .  S
C871        C872   1.410       .  A
C871        O876   1.372       .  S
C872        C873   1.402       .  A
C873        C874   1.393       .  A
C873        H877   1.084       .  S
C874        O878   1.372       .  S
O876        H880   0.992       .  S
O878        H879   0.991       .  S
O881       Zr893   2.423       .  S
O881        C883   1.280       .  A
O882       Zr919   2.411       .  S
O882        C883   1.281       .  A
C883       C1752   1.462       .  S
O884       Zr896   2.445       .  S
O884        C886   1.290       .  A
O885       Zr920   2.455       .  S
O885        C886   1.291       .  A
C886       C1665   1.495       .  S
O887       Zr896   2.437       .  S
O887        C889   1.287       .  A
O888       Zr919   2.353       .  S
O888        C889   1.273       .  A
C889       C1713   1.436       .  S
O890       Zr893   2.446       .  S
O890        C892   1.289       .  A
O891       Zr920   2.341       .  S
O891        C892   1.270       .  A
C892       C1728   1.443       .  S
Zr893       O894   2.434       .  S
Zr893       O895   2.436       .  S
Zr893       O899   2.369       .  S
Zr893       O900   2.358       .  S
Zr893       O923   2.360       .  S
Zr893       O925   2.372       .  S
O894        H937   0.990       .  S
O895        H936   0.990       .  S
O895        H940   0.990       .  S
Zr896       O897   2.434       .  S
Zr896       O898   2.434       .  S
Zr896       O900   2.374       .  S
Zr896       O899   2.358       .  S
Zr896       O924   2.379       .  S
Zr896       O926   2.359       .  S
O897        H938   0.990       .  S
O897        H941   0.990       .  S
O898        H931   0.990       .  S
O899       Zr919   2.373       .  S
O900       Zr920   2.380       .  S
O900        H927   0.965       .  S
O901       Zr913   2.423       .  S
O901        C903   1.280       .  A
O902       Zr920   2.415       .  S
O902        C903   1.286       .  A
C903       C1740   1.473       .  S
O904       Zr916   2.449       .  S
O904        C906   1.290       .  A
O905       Zr919   2.398       .  S
O905        C906   1.279       .  A
C906       C1704   1.460       .  S
O907       Zr916   2.484       .  S
O907        C909   1.296       .  A
O908       Zr920   2.380       .  S
O908        C909   1.276       .  A
C909       C1689   1.466       .  S
O910       Zr913   2.463       .  S
O910        C912   1.292       .  A
O911       Zr919   2.393       .  S
O911        C912   1.280       .  A
C912       C1680   1.480       .  S
Zr913       O914   2.434       .  S
Zr913       O915   2.434       .  S
Zr913       O921   2.400       .  S
Zr913       O922   2.352       .  S
Zr913       O925   2.364       .  S
Zr913       O923   2.381       .  S
O914        H934   0.989       .  S
O914        H939   0.990       .  S
O915        H935   0.990       .  S
Zr916       O917   2.435       .  S
Zr916       O918   2.430       .  S
Zr916       O922   2.377       .  S
Zr916       O921   2.357       .  S
Zr916       O926   2.362       .  S
Zr916       O924   2.372       .  S
O917        H933   0.990       .  S
O918        H932   0.990       .  S
O918        H942   0.990       .  S
Zr919       O922   2.361       .  S
Zr919       O924   2.386       .  S
Zr919       O925   2.377       .  S
Zr920       O921   2.394       .  S
Zr920       O923   2.383       .  S
Zr920       O926   2.368       .  S
O921        H929   0.965       .  S
O924        H928   0.966       .  S
O925        H930   0.966       .  S
O943       Zr955   2.382       .  S
O943        C945   1.276       .  A
O944       Zr981   2.495       .  S
O944        C945   1.300       .  A
C945       C1629   1.477       .  S
O946       Zr958   2.400       .  S
O946        C948   1.259       .  A
O947       Zr982   2.478       .  S
O947        C948   1.290       .  A
C948       C1593   1.457       .  S
O949       Zr958   2.439   1_554  S
O949        C951   1.286       .  A
O950       Zr981   2.421   1_554  S
O950        C951   1.285       .  A
C951       C1677   1.467       .  S
O952       Zr955   2.442       .  S
O952        C954   1.285       .  A
O953       Zr982   2.382       .  S
O953        C954   1.282       .  A
C954       C1641   1.441       .  S
Zr955       O956   2.436       .  S
Zr955       O957   2.433       .  S
Zr955       O961   2.381       .  S
Zr955       O962   2.339       .  S
Zr955       O985   2.349       .  S
Zr955       O987   2.365       .  S
O956        H999   0.991       .  S
O957        H998   0.990       .  S
O957       H1002   0.990       .  S
Zr958       O959   2.439       .  S
Zr958       O960   2.434       .  S
Zr958       O962   2.403       .  S
Zr958       O961   2.340       .  S
Zr958       O986   2.362       .  S
Zr958       O988   2.394       .  S
O959       H1000   0.990       .  S
O959       H1003   0.990       .  S
O960        H993   0.990   1_556  S
O961       Zr981   2.374       .  S
O962       Zr982   2.406       .  S
O962        H989   0.964       .  S
O963       Zr975   2.441       .  S
O963        C965   1.289       .  A
O964       Zr982   2.458       .  S
O964        C965   1.293       .  A
C965       C1668   1.494       .  S
O966       Zr978   2.400       .  S
O966        C968   1.270       .  A
O967       Zr981   2.505       .  S
O967        C968   1.292       .  A
C968       C1620   1.497       .  S
O969       Zr978   2.443       .  S
O969        C971   1.286       .  A
O970       Zr982   2.414       .  S
O970        C971   1.286       .  A
C971       C1608   1.466       .  S
O972       Zr975   2.427       .  S
O972        C974   1.287       .  A
O973       Zr981   2.386       .  S
O973        C974   1.283       .  A
C974       C1653   1.464       .  S
Zr975       O976   2.435       .  S
Zr975       O977   2.435       .  S
Zr975       O983   2.368       .  S
Zr975       O984   2.352       .  S
Zr975       O987   2.374       .  S
Zr975       O985   2.357       .  S
O976        H996   0.990       .  S
O976       H1001   0.990       .  S
O977        H997   0.990       .  S
Zr978       O979   2.436       .  S
Zr978       O980   2.436       .  S
Zr978       O984   2.365       .  S
Zr978       O983   2.365       .  S
Zr978       O988   2.357       .  S
Zr978       O986   2.393       .  S
O979        H995   0.990       .  S
O980        H994   0.990       .  S
O980       H1004   0.990       .  S
Zr981       O984   2.389       .  S
Zr981       O986   2.396       .  S
Zr981       O987   2.417       .  S
Zr982       O983   2.379       .  S
Zr982       O985   2.390       .  S
Zr982       O988   2.393       .  S
O983        H991   0.964       .  S
O986        H990   0.966       .  S
O987        H992   0.966       .  S
O1005      C1007   1.274       .  A
O1006      C1007   1.295   1_556  A
C1007      C1545   1.482       .  S
O1008     Zr1020   2.375       .  S
O1008      C1010   1.275       .  A
O1009     Zr1044   2.594       .  S
O1009      C1010   1.322       .  A
C1010      C1569   1.512       .  S
O1011     Zr1020   2.504   1_556  S
O1012      C1013   1.274       .  A
C1013      C1632   1.486       .  S
O1014     Zr1017   2.435       .  S
O1014      C1016   1.285       .  A
O1015     Zr1044   2.464       .  S
O1015      C1016   1.295       .  A
C1016      C1533   1.485       .  S
Zr1017     O1018   2.428       .  S
Zr1017     O1019   2.430       .  S
Zr1017     O1023   2.368       .  S
Zr1017     O1024   2.364       .  S
Zr1017     O1047   2.336       .  S
Zr1017     O1049   2.399       .  S
O1019      H1060   0.988       .  S
O1019      H1064   0.990       .  S
Zr1020     O1021   2.438       .  S
Zr1020     O1022   2.437   1_554  S
Zr1020     O1024   2.401       .  S
Zr1020     O1023   2.319       .  S
Zr1020     O1048   2.358   1_554  S
Zr1020     O1050   2.402   1_554  S
O1021      H1062   0.990       .  S
O1021      H1065   0.990       .  S
O1022      H1055   0.990       .  S
O1023     Zr1043   2.366   1_554  S
O1024     Zr1044   2.397       .  S
O1024      H1051   0.965       .  S
O1025     Zr1037   2.375   1_554  S
O1025      C1027   1.269       .  A
O1026     Zr1044   2.577       .  S
O1026      C1027   1.315       .  A
C1027      C1581   1.503   1_565  S
O1028     Zr1040   2.420       .  S
O1028      C1030   1.283       .  A
O1029     Zr1043   2.466       .  S
O1029      C1030   1.296       .  A
C1030      C1521   1.480       .  S
O1031     Zr1040   2.510       .  S
O1031      C1033   1.302       .  A
O1032     Zr1044   2.418       .  S
O1032      C1033   1.287   1_554  A
C1033      C1617   1.505       .  S
O1034     Zr1037   2.489       .  S
O1034      C1036   1.295       .  A
O1035     Zr1043   2.376       .  S
O1035      C1036   1.279       .  A
C1036      C1557   1.478   1_565  S
Zr1037     O1038   2.438       .  S
Zr1037     O1039   2.433   1_566  S
Zr1037     O1045   2.402       .  S
Zr1037     O1046   2.332       .  S
Zr1037     O1049   2.341   1_556  S
Zr1037     O1047   2.405   1_556  S
O1038      H1058   0.990       .  S
O1038      H1063   0.991   1_565  S
O1039      H1059   0.989       .  S
Zr1040     O1041   2.434       .  S
Zr1040     O1042   2.433       .  S
Zr1040     O1046   2.384       .  S
Zr1040     O1045   2.350       .  S
Zr1040     O1050   2.336       .  S
Zr1040     O1048   2.405       .  S
O1041      H1057   0.990       .  S
O1042      H1056   0.990       .  S
O1042      H1066   0.990       .  S
Zr1043     O1046   2.382       .  S
Zr1043     O1048   2.387       .  S
Zr1043     O1049   2.383   1_556  S
Zr1044     O1045   2.418   1_554  S
Zr1044     O1047   2.401       .  S
Zr1044     O1050   2.386   1_554  S
O1045      H1053   0.964       .  S
O1048      H1052   0.966       .  S
O1049      H1054   0.966       .  S
O1067      C1069   1.275       .  A
O1068      C1069   1.287       .  A
C1069      C1473   1.480       .  S
O1070     Zr1082   2.359       .  S
O1070      C1072   1.272       .  A
O1071     Zr1106   2.588       .  S
O1071      C1072   1.320       .  A
C1072      C1497   1.513       .  S
O1073     Zr1082   2.431       .  S
O1074      C1075   1.276       .  A
C1075      C1725   1.437       .  S
O1076     Zr1079   2.406       .  S
O1076      C1078   1.279       .  A
O1077     Zr1106   2.472       .  S
O1077      C1078   1.295       .  A
C1078      C1524   1.481       .  S
Zr1079     O1080   2.450       .  S
Zr1079     O1081   2.470       .  S
Zr1079     O1085   2.366       .  S
Zr1079     O1086   2.368       .  S
Zr1079     O1109   2.350       .  S
Zr1079     O1111   2.408       .  S
O1081      H1122   0.990       .  S
O1081      H1126   0.990       .  S
Zr1082     O1083   2.437       .  S
Zr1082     O1084   2.435       .  S
Zr1082     O1086   2.384       .  S
Zr1082     O1085   2.316       .  S
Zr1082     O1110   2.358       .  S
Zr1082     O1112   2.369       .  S
O1083      H1124   0.990       .  S
O1083      H1127   0.990       .  S
O1084      H1117   0.990       .  S
O1085     Zr1105   2.373       .  S
O1086     Zr1106   2.383       .  S
O1086      H1113   0.965       .  S
O1087     Zr1099   2.370       .  S
O1087      C1089   1.264       .  A
O1088     Zr1106   2.584       .  S
O1088      C1089   1.315       .  A
C1089      C1509   1.507   1_565  S
O1090     Zr1102   2.396       .  S
O1090      C1092   1.279       .  A
O1091     Zr1105   2.506       .  S
O1091      C1092   1.302       .  A
C1092      C1536   1.486       .  S
O1093     Zr1102   2.447       .  S
O1093      C1095   1.290       .  A
O1094     Zr1106   2.353       .  S
O1094      C1095   1.278       .  A
C1095      C1716   1.447       .  S
O1096     Zr1099   2.481       .  S
O1096      C1098   1.290       .  A
O1097     Zr1105   2.366       .  S
O1097      C1098   1.268       .  A
C1098      C1488   1.476       .  S
Zr1099     O1100   2.443   1_565  S
Zr1099     O1101   2.435   1_565  S
Zr1099     O1107   2.411       .  S
Zr1099     O1108   2.342       .  S
Zr1099     O1111   2.350       .  S
Zr1099     O1109   2.404       .  S
O1100      H1120   0.990       .  S
O1100      H1125   0.990       .  S
O1101      H1121   0.989       .  S
Zr1102     O1103   2.434       .  S
Zr1102     O1104   2.434       .  S
Zr1102     O1108   2.381       .  S
Zr1102     O1107   2.344       .  S
Zr1102     O1112   2.341       .  S
Zr1102     O1110   2.375       .  S
O1103      H1119   0.990       .  S
O1104      H1118   0.990       .  S
O1104      H1128   0.990       .  S
Zr1105     O1108   2.375       .  S
Zr1105     O1110   2.388       .  S
Zr1105     O1111   2.398       .  S
Zr1106     O1107   2.420       .  S
Zr1106     O1109   2.378       .  S
Zr1106     O1112   2.393       .  S
O1107      H1115   0.964       .  S
O1110      H1114   0.966       .  S
O1111      H1116   0.962       .  S
O1129     Zr1141   2.466       .  S
O1129      C1131   1.289       .  A
O1130     Zr1167   2.357       .  S
O1130      C1131   1.275       .  A
C1131      C1701   1.463       .  S
O1132     Zr1144   2.407   1_556  S
O1132      C1134   1.280       .  A
O1133     Zr1168   2.424   1_556  S
O1133      C1134   1.286       .  A
C1134      C1428   1.469       .  S
O1135     Zr1144   2.387       .  S
O1135      C1137   1.263       .  A
O1136     Zr1167   2.490       .  S
O1136      C1137   1.293       .  A
C1137      C1596   1.457       .  S
O1138     Zr1141   2.316       .  S
O1138      C1140   1.264       .  A
O1139     Zr1168   2.609       .  S
O1139      C1140   1.324       .  A
C1140      C1572   1.505       .  S
Zr1141     O1142   2.434       .  S
Zr1141     O1143   2.436       .  S
Zr1141     O1147   2.332       .  S
Zr1141     O1148   2.405       .  S
Zr1141     O1171   2.395       .  S
Zr1141     O1173   2.329       .  S
O1142      H1185   0.990       .  S
O1143      H1184   0.990       .  S
O1143      H1188   0.990       .  S
Zr1144     O1145   2.425   1_554  S
Zr1144     O1146   2.433   1_554  S
Zr1144     O1148   2.352       .  S
Zr1144     O1147   2.389       .  S
Zr1144     O1172   2.369       .  S
Zr1144     O1174   2.339       .  S
O1145      H1186   0.989       .  S
O1145      H1189   0.990       .  S
O1146      H1179   0.990       .  S
O1147     Zr1167   2.357       .  S
O1148     Zr1168   2.379       .  S
O1148      H1175   0.965       .  S
O1149     Zr1161   2.541       .  S
O1149      C1151   1.307       .  A
O1150     Zr1168   2.374       .  S
O1150      C1151   1.277       .  A
C1151      C1449   1.513       .  S
O1152     Zr1164   2.591       .  S
O1152      C1154   1.314       .  A
O1153     Zr1167   2.331       .  S
O1153      C1154   1.269       .  A
C1154      C1461   1.497       .  S
O1155     Zr1164   2.412       .  S
O1155      C1157   1.275       .  A
O1156     Zr1168   2.548       .  S
O1156      C1157   1.305       .  A
C1157      C1584   1.527       .  S
O1158     Zr1161   2.428       .  S
O1158      C1160   1.288       .  A
O1159     Zr1167   2.425       .  S
O1159      C1160   1.289       .  A
C1160      C1437   1.471       .  S
Zr1161     O1162   2.437       .  S
Zr1161     O1163   2.434       .  S
Zr1161     O1169   2.338       .  S
Zr1161     O1170   2.411       .  S
Zr1161     O1173   2.396       .  S
Zr1161     O1171   2.352       .  S
O1162      H1182   0.990       .  S
O1162      H1187   0.990       .  S
O1163      H1183   0.990       .  S
Zr1164     O1165   2.434       .  S
Zr1164     O1166   2.435       .  S
Zr1164     O1170   2.342       .  S
Zr1164     O1169   2.435       .  S
Zr1164     O1174   2.423       .  S
Zr1164     O1172   2.315       .  S
O1165      H1181   0.990       .  S
O1166      H1180   0.990       .  S
O1166      H1190   0.990       .  S
Zr1167     O1170   2.388       .  S
Zr1167     O1172   2.378       .  S
Zr1167     O1173   2.377       .  S
Zr1168     O1169   2.432       .  S
Zr1168     O1171   2.386       .  S
Zr1168     O1174   2.416       .  S
O1169      H1177   0.965       .  S
O1172      H1176   0.961       .  S
O1173      H1178   0.966       .  S
O1191     Zr1203   2.452       .  S
O1191      C1193   1.287       .  A
O1192     Zr1229   2.373       .  S
O1192      C1193   1.277       .  A
C1193      C1605   1.453       .  S
O1194     Zr1206   2.434       .  S
O1194      C1196   1.286       .  A
O1195     Zr1230   2.399       .  S
O1195      C1196   1.283       .  A
C1196      C1440   1.475       .  S
O1197     Zr1206   2.385       .  S
O1197      C1199   1.280       .  A
O1198     Zr1229   2.468       .  S
O1198      C1199   1.294       .  A
C1199      C1692   1.465       .  S
O1200     Zr1203   2.329       .  S
O1200      C1202   1.266       .  A
O1201     Zr1230   2.601       .  S
O1201      C1202   1.323       .  A
C1202      C1500   1.501       .  S
Zr1203     O1204   2.435       .  S
Zr1203     O1205   2.436       .  S
Zr1203     O1209   2.340       .  S
Zr1203     O1210   2.398       .  S
Zr1203     O1233   2.392       .  S
Zr1203     O1235   2.330       .  S
O1204      H1247   0.990       .  S
O1205      H1246   0.990       .  S
O1205      H1250   0.990       .  S
Zr1206     O1207   2.431       .  S
Zr1206     O1208   2.434       .  S
Zr1206     O1210   2.325       .  S
Zr1206     O1209   2.384       .  S
Zr1206     O1234   2.345       .  S
Zr1206     O1236   2.361       .  S
O1207      H1248   0.990       .  S
O1207      H1251   0.990       .  S
O1208      H1241   0.990       .  S
O1209     Zr1229   2.371       .  S
O1210     Zr1230   2.390       .  S
O1210      H1237   0.965       .  S
O1211     Zr1223   2.528       .  S
O1211      C1213   1.305       .  A
O1212     Zr1230   2.374       .  S
O1212      C1213   1.278       .  A
C1213      C1401   1.502       .  S
O1214     Zr1226   2.544       .  S
O1214      C1216   1.302       .  A
O1215     Zr1229   2.376       .  S
O1215      C1216   1.273       .  A
C1216      C1413   1.515       .  S
O1217     Zr1226   2.386       .  S
O1217      C1219   1.277       .  A
O1218     Zr1230   2.582       .  S
O1218      C1219   1.320       .  A
C1219      C1512   1.505       .  S
O1220     Zr1223   2.418       .  S
O1220      C1222   1.285       .  A
O1221     Zr1229   2.427       .  S
O1221      C1222   1.290       .  A
C1222      C1425   1.470       .  S
Zr1223     O1224   2.436       .  S
Zr1223     O1225   2.434       .  S
Zr1223     O1231   2.332       .  S
Zr1223     O1232   2.418       .  S
Zr1223     O1235   2.385       .  S
Zr1223     O1233   2.348       .  S
O1224      H1244   0.990       .  S
O1224      H1249   0.990       .  S
O1225      H1245   0.990       .  S
Zr1226     O1227   2.434       .  S
Zr1226     O1228   2.438       .  S
Zr1226     O1232   2.355       .  S
Zr1226     O1231   2.428       .  S
Zr1226     O1236   2.412       .  S
Zr1226     O1234   2.326       .  S
O1227      H1243   0.990       .  S
O1228      H1242   0.990       .  S
O1228      H1252   0.990       .  S
Zr1229     O1232   2.378       .  S
Zr1229     O1234   2.374       .  S
Zr1229     O1235   2.382       .  S
Zr1230     O1231   2.403       .  S
Zr1230     O1233   2.391       .  S
Zr1230     O1236   2.402       .  S
O1231      H1239   0.963       .  S
O1234      H1238   0.962       .  S
O1235      H1240   0.966       .  S
O1253     Zr1265   2.411   1_565  S
O1253      C1255   1.278       .  A
O1254     Zr1291   2.493   1_565  S
O1254      C1255   1.294       .  A
C1255      C1548   1.482       .  S
O1256     Zr1268   2.366       .  S
O1256      C1258   1.271       .  A
O1257     Zr1292   2.553       .  S
O1257      C1258   1.312       .  A
C1258      C1464   1.492       .  S
O1259     Zr1268   2.428       .  S
O1259      C1261   1.284   1_545  A
O1260     Zr1291   2.403       .  S
O1260      C1261   1.284   1_545  A
C1261      C1749   1.453       .  S
O1262     Zr1265   2.439       .  S
O1262      C1264   1.287       .  A
O1263     Zr1292   2.440       .  S
O1263      C1264   1.290       .  A
C1264      C1389   1.486       .  S
Zr1265     O1266   2.429       .  S
Zr1265     O1267   2.432       .  S
Zr1265     O1271   2.378       .  S
Zr1265     O1272   2.364       .  S
Zr1265     O1295   2.332       .  S
Zr1265     O1297   2.376       .  S
O1266      H1309   0.991       .  S
O1267      H1308   0.988       .  S
O1267      H1312   0.990       .  S
Zr1268     O1269   2.437       .  S
Zr1268     O1270   2.436       .  S
Zr1268     O1272   2.375       .  S
Zr1268     O1271   2.333       .  S
Zr1268     O1296   2.359       .  S
Zr1268     O1298   2.387       .  S
O1269      H1310   0.990       .  S
O1269      H1313   0.990       .  S
O1270      H1303   0.990       .  S
O1271     Zr1291   2.376       .  S
O1272     Zr1292   2.390       .  S
O1272      H1299   0.964       .  S
O1273     Zr1285   2.376       .  S
O1273      C1275   1.276       .  A
O1274     Zr1292   2.528       .  S
O1274      C1275   1.308       .  A
O1276     Zr1288   2.415       .  S
O1276      C1278   1.284       .  A
O1277     Zr1291   2.489       .  S
O1277      C1278   1.299       .  A
C1278      C1377   1.502       .  S
O1279     Zr1288   2.433       .  S
O1279      C1281   1.287       .  A
O1280     Zr1292   2.421       .  S
O1280      C1281   1.287       .  A
C1281      C1737   1.476       .  S
O1282     Zr1285   2.440       .  S
O1282      C1284   1.286       .  A
O1283     Zr1291   2.402       .  S
O1283      C1284   1.287       .  A
Zr1285     O1286   2.437       .  S
Zr1285     O1293   2.364       .  S
Zr1285     O1294   2.336       .  S
Zr1285     O1297   2.348       .  S
Zr1285     O1295   2.389       .  S
O1286      H1306   0.990       .  S
O1287      H1307   0.990       .  S
Zr1288     O1289   2.437       .  S
Zr1288     O1290   2.434       .  S
Zr1288     O1294   2.363       .  S
Zr1288     O1293   2.367       .  S
Zr1288     O1298   2.352       .  S
Zr1288     O1296   2.364       .  S
O1289      H1305   0.991       .  S
O1290      H1304   0.990       .  S
O1290      H1314   0.990       .  S
Zr1291     O1294   2.367       .  S
Zr1291     O1296   2.393       .  S
Zr1291     O1297   2.400       .  S
Zr1292     O1293   2.404       .  S
Zr1292     O1295   2.406       .  S
Zr1292     O1298   2.401       .  S
O1293      H1301   0.962       .  S
O1296      H1300   0.966       .  S
O1297      H1302   0.966       .  S
O1315     Zr1327   2.413       .  S
O1315      C1317   1.264   1_545  A
O1316     Zr1353   2.445   1_565  S
O1316      C1317   1.280       .  A
C1317      C1476   1.468       .  S
O1318     Zr1330   2.381       .  S
O1318      C1320   1.277       .  A
O1319     Zr1354   2.526       .  S
O1319      C1320   1.307       .  A
C1320      C1416   1.487       .  S
O1321     Zr1330   2.413       .  S
O1321      C1323   1.280       .  A
O1322     Zr1353   2.383       .  S
O1322      C1323   1.277       .  A
C1323      C1656   1.458   1_545  S
O1324     Zr1327   2.435       .  S
O1324      C1326   1.284       .  A
O1325     Zr1354   2.445       .  S
O1325      C1326   1.291       .  A
C1326      C1380   1.495       .  S
Zr1327     O1328   2.423   1_545  S
Zr1327     O1329   2.428       .  S
Zr1327     O1333   2.364       .  S
Zr1327     O1334   2.345       .  S
Zr1327     O1357   2.333       .  S
Zr1327     O1359   2.398       .  S
O1328      H1371   0.990   1_565  S
O1329      H1374   0.989       .  S
Zr1330     O1331   2.440       .  S
Zr1330     O1332   2.434       .  S
Zr1330     O1334   2.380       .  S
Zr1330     O1333   2.339       .  S
Zr1330     O1358   2.380       .  S
Zr1330     O1360   2.344       .  S
O1331      H1372   0.990       .  S
O1331      H1375   0.990       .  S
O1332      H1365   0.990       .  S
O1333     Zr1353   2.356       .  S
O1334     Zr1354   2.400       .  S
O1334      H1361   0.965       .  S
O1335     Zr1347   2.367       .  S
O1335      C1337   1.273       .  A
O1336     Zr1354   2.515       .  S
O1336      C1337   1.304       .  A
O1338     Zr1350   2.438       .  S
O1338      C1340   1.286       .  A
O1339     Zr1353   2.431       .  S
O1339      C1340   1.288       .  A
C1340      C1392   1.484       .  S
O1341     Zr1350   2.435       .  S
O1341      C1343   1.279       .  A
O1342     Zr1354   2.382       .  S
O1342      C1343   1.272       .  A
C1343      C1644   1.463       .  S
O1344      C1346   1.285   1_655  A
O1345     Zr1353   2.418       .  S
C1346      C1560   1.471   1_455  S
Zr1347     O1348   2.440       .  S
Zr1347     O1355   2.384       .  S
Zr1347     O1356   2.368       .  S
Zr1347     O1359   2.385       .  S
Zr1347     O1357   2.419       .  S
O1348      H1368   0.990       .  S
O1349      H1369   0.990       .  S
Zr1350     O1351   2.436       .  S
Zr1350     O1352   2.439       .  S
Zr1350     O1356   2.387       .  S
Zr1350     O1355   2.372       .  S
Zr1350     O1360   2.393       .  S
Zr1350     O1358   2.392       .  S
O1351      H1367   0.990       .  S
O1352      H1366   0.990       .  S
O1352      H1376   0.990       .  S
Zr1353     O1356   2.340       .  S
Zr1353     O1358   2.382       .  S
Zr1353     O1359   2.398       .  S
Zr1354     O1355   2.434       .  S
Zr1354     O1357   2.405       .  S
Zr1354     O1360   2.430       .  S
O1355      H1363   0.965       .  S
O1358      H1362   0.966       .  S
O1359      H1364   0.963       .  S
C1377      C1378   1.414       .  A
C1377      C1382   1.410       .  A
C1378      C1379   1.396       .  A
C1378      H1383   1.082       .  S
C1379      C1380   1.406       .  A
C1379      O1384   1.372       .  S
C1380      C1381   1.415       .  A
C1381      C1382   1.411       .  A
C1381      H1385   1.083       .  S
C1382      O1386   1.370       .  S
O1384      H1388   0.992       .  S
O1386      H1387   0.992       .  S
C1389      C1390   1.407       .  A
C1389      C1394   1.413   1_554  A
C1390      C1391   1.405   1_554  A
C1390      H1395   1.084       .  S
C1391      C1392   1.412       .  A
C1391      O1396   1.372       .  S
C1392      C1393   1.403       .  A
C1393      C1394   1.398       .  A
C1393      H1397   1.083       .  S
C1394      O1398   1.373       .  S
O1396      H1400   0.992       .  S
O1398      H1399   0.992       .  S
C1401      C1402   1.415       .  A
C1401      C1406   1.408       .  A
C1402      C1403   1.406       .  A
C1402      H1407   1.083       .  S
C1403      C1404   1.404       .  A
C1403      O1408   1.371       .  S
C1404      C1405   1.414       .  A
C1405      C1406   1.410       .  A
C1405      H1409   1.084       .  S
C1406      O1410   1.371       .  S
O1408      H1412   0.992       .  S
O1410      H1411   0.992       .  S
C1413      C1414   1.418       .  A
C1413      C1418   1.413       .  A
C1414      C1415   1.401       .  A
C1414      H1419   1.083       .  S
C1415      C1416   1.403       .  A
C1415      O1420   1.372       .  S
C1416      C1417   1.414       .  A
C1417      C1418   1.419       .  A
C1417      H1421   1.083       .  S
C1418      O1422   1.370       .  S
O1420      H1424   0.991       .  S
O1422      H1423   0.992       .  S
C1425      C1426   1.398       .  A
C1425      C1430   1.414       .  A
C1426      C1427   1.388       .  A
C1426      H1431   1.084       .  S
C1427      C1428   1.412       .  A
C1427      O1432   1.371       .  S
C1428      C1429   1.400       .  A
C1429      C1430   1.400       .  A
C1429      H1433   1.084       .  S
C1430      O1434   1.372       .  S
O1432      H1436   0.992       .  S
O1434      H1435   0.992       .  S
C1437      C1438   1.402       .  A
C1437      C1442   1.410       .  A
C1438      C1439   1.397       .  A
C1438      H1443   1.084       .  S
C1439      C1440   1.412       .  A
C1439      O1444   1.372       .  S
C1440      C1441   1.404       .  A
C1441      C1442   1.393       .  A
C1441      H1445   1.084       .  S
C1442      O1446   1.372       .  S
O1444      H1448   0.992       .  S
O1446      H1447   0.992       .  S
C1449      C1450   1.405       .  A
C1449      C1454   1.427       .  A
C1450      C1451   1.414       .  A
C1450      H1455   1.083       .  S
C1451      C1452   1.418       .  A
C1451      O1456   1.373       .  S
C1452      C1453   1.398       .  A
C1453      C1454   1.407       .  A
C1453      H1457   1.084       .  S
C1454      O1458   1.372       .  S
O1456      H1460   0.992       .  S
O1458      H1459   0.992       .  S
C1461      C1462   1.410       .  A
C1461      C1466   1.415       .  A
C1462      C1463   1.420       .  A
C1462      H1467   1.083       .  S
C1463      C1464   1.416       .  A
C1463      O1468   1.371       .  S
C1464      C1465   1.406       .  A
C1465      C1466   1.407       .  A
C1465      H1469   1.084       .  S
C1466      O1470   1.372       .  S
O1468      H1472   0.992       .  S
O1470      H1471   0.992       .  S
C1473      C1474   1.407       .  A
C1473      C1478   1.394       .  A
C1474      C1475   1.420       .  A
C1474      H1479   1.082       .  S
C1475      C1476   1.419       .  A
C1475      O1480   1.371       .  S
C1476      C1477   1.385       .  A
C1477      C1478   1.377       .  A
O1480      H1484   0.992       .  S
O1482      H1483   0.985       .  S
C1485      C1486   1.400   1_545  A
C1485      C1490   1.418   1_455  A
C1486      C1487   1.384   1_455  A
C1486      H1491   1.083       .  S
C1487      C1488   1.415       .  A
C1487      O1492   1.373   1_655  S
C1488      C1489   1.403   1_565  A
C1489      C1490   1.407       .  A
C1489      H1493   1.083       .  S
C1490      O1494   1.371       .  S
O1492      H1496   0.992       .  S
O1494      H1495   0.992       .  S
C1497      C1498   1.415       .  A
C1497      C1502   1.413       .  A
C1498      C1499   1.412       .  A
C1498      H1503   1.084       .  S
C1499      C1500   1.412       .  A
C1499      O1504   1.372       .  S
C1500      C1501   1.420       .  A
C1501      C1502   1.425       .  A
C1501      H1505   1.083       .  S
C1502      O1506   1.371       .  S
O1504      H1508   0.992       .  S
O1506      H1507   0.992       .  S
C1509      C1510   1.411       .  A
C1509      C1514   1.418       .  A
C1510      C1511   1.422       .  A
C1510      H1515   1.083       .  S
C1511      C1512   1.418       .  A
C1511      O1516   1.371       .  S
C1512      C1513   1.408       .  A
C1513      C1514   1.414       .  A
C1513      H1517   1.084       .  S
C1514      O1518   1.372       .  S
O1516      H1520   0.992       .  S
O1518      H1519   0.992       .  S
C1521      C1522   1.397       .  A
C1521      C1526   1.416       .  A
C1522      C1523   1.400       .  A
C1522      H1527   1.084       .  S
C1523      C1524   1.416       .  A
C1523      O1528   1.373       .  S
C1524      C1525   1.401       .  A
C1525      C1526   1.406       .  A
C1525      H1529   1.083       .  S
C1526      O1530   1.372       .  S
O1528      H1532   0.992       .  S
O1530      H1531   0.992       .  S
C1533      C1534   1.403       .  A
C1533      C1538   1.408       .  A
C1534      C1535   1.411       .  A
C1534      H1539   1.084       .  S
C1535      C1536   1.410       .  A
C1535      O1540   1.371       .  S
C1536      C1537   1.408       .  A
C1537      C1538   1.407       .  A
C1537      H1541   1.084       .  S
C1538      O1542   1.371       .  S
O1540      H1544   0.991       .  S
O1542      H1543   0.992       .  S
C1545      C1546   1.412       .  A
C1545      C1550   1.401       .  A
C1546      C1547   1.409       .  A
C1547      C1548   1.403       .  A
C1547      O1552   1.372       .  S
C1548      C1549   1.411       .  A
C1549      C1550   1.407       .  A
C1549      H1553   1.083       .  S
C1550      O1554   1.370       .  S
O1554      H1555   0.991       .  S
C1557      C1558   1.404       .  A
C1557      C1562   1.412   1_545  A
C1558      C1559   1.408       .  A
C1558      H1563   1.083       .  S
C1559      C1560   1.410       .  A
C1559      O1564   1.371       .  S
C1560      C1561   1.396       .  A
C1561      C1562   1.396   1_545  A
C1561      H1565   1.084   1_545  S
C1562      O1566   1.372       .  S
O1564      H1568   0.992       .  S
O1566      H1567   0.992       .  S
C1569      C1570   1.415       .  A
C1569      C1574   1.413       .  A
C1570      C1571   1.420       .  A
C1570      H1575   1.084       .  S
C1571      C1572   1.415       .  A
C1571      O1576   1.371       .  S
C1572      C1573   1.419       .  A
C1573      C1574   1.420       .  A
C1573      H1577   1.084   1_554  S
C1574      O1578   1.371   1_554  S
O1576      H1580   0.992       .  S
O1578      H1579   0.992       .  S
C1581      C1582   1.418       .  A
C1581      C1586   1.405       .  A
C1582      C1583   1.421       .  A
C1582      H1587   1.081       .  S
C1583      C1584   1.412       .  A
C1583      O1588   1.371       .  S
C1584      C1585   1.420       .  A
C1585      C1586   1.413       .  A
C1585      H1589   1.080       .  S
C1586      O1590   1.371   1_545  S
O1588      H1592   0.992       .  S
O1590      H1591   0.992       .  S
C1593      C1594   1.406       .  A
C1593      C1598   1.404       .  A
C1594      C1595   1.403       .  A
C1594      H1599   1.084       .  S
C1595      C1596   1.409   1_556  A
C1595      O1600   1.372       .  S
C1596      C1597   1.400   1_554  A
C1597      C1598   1.397       .  A
C1597      H1601   1.085   1_556  S
C1598      O1602   1.373       .  S
O1600      H1604   0.992       .  S
O1602      H1603   0.992       .  S
C1605      C1606   1.395       .  A
C1605      C1610   1.407       .  A
C1606      C1607   1.390       .  A
C1606      H1611   1.082       .  S
C1607      C1608   1.407       .  A
C1607      O1612   1.369       .  S
C1608      C1609   1.403       .  A
C1609      C1610   1.401       .  A
C1609      H1613   1.084       .  S
C1610      O1614   1.371       .  S
O1612      H1616   0.992       .  S
O1614      H1615   0.992       .  S
C1617      C1618   1.416       .  A
C1617      C1622   1.410       .  A
C1618      C1619   1.415       .  A
C1618      H1623   1.083   1_556  S
C1619      C1620   1.408       .  A
C1619      O1624   1.370   1_556  S
C1620      C1621   1.410       .  A
C1621      C1622   1.403       .  A
C1621      H1625   1.084       .  S
C1622      O1626   1.372       .  S
O1624      H1628   0.992       .  S
O1626      H1627   0.992       .  S
C1629      C1630   1.416       .  A
C1629      C1634   1.399       .  A
C1630      C1631   1.403       .  A
C1630      H1635   1.084       .  S
C1631      C1632   1.401       .  A
C1631      O1636   1.371       .  S
C1632      C1633   1.415       .  A
C1633      C1634   1.399       .  A
C1633      H1637   1.082       .  S
C1634      O1638   1.372       .  S
O1636      H1640   0.992   1_556  S
O1638      H1639   0.992       .  S
C1641      C1642   1.399       .  A
C1641      C1646   1.400       .  A
C1642      C1643   1.397       .  A
C1642      H1647   1.084       .  S
C1643      C1644   1.411       .  A
C1643      O1648   1.372       .  S
C1644      C1645   1.399       .  A
C1645      C1646   1.383       .  A
C1645      H1649   1.079       .  S
C1646      O1650   1.375       .  S
O1648      H1652   0.992       .  S
O1650      H1651   0.992       .  S
C1653      C1654   1.403       .  A
C1653      C1658   1.410       .  A
C1654      C1655   1.390       .  A
C1654      H1659   1.084       .  S
C1655      C1656   1.407       .  A
C1655      O1660   1.374   1_565  S
C1656      C1657   1.400       .  A
C1657      C1658   1.391       .  A
C1657      H1661   1.084       .  S
C1658      O1662   1.373       .  S
O1660      H1664   0.992   1_545  S
O1662      H1663   0.992       .  S
C1665      C1666   1.411       .  A
C1665      C1670   1.411       .  A
C1666      C1667   1.415       .  A
C1666      H1671   1.083       .  S
C1667      C1668   1.413       .  A
C1667      O1672   1.371       .  S
C1668      C1669   1.404       .  A
C1669      C1670   1.395       .  A
C1669      H1673   1.084       .  S
C1670      O1674   1.372       .  S
O1672      H1676   0.992       .  S
O1674      H1675   0.992       .  S
C1677      C1678   1.398       .  A
C1677      C1682   1.403       .  A
C1678      C1679   1.401       .  A
C1678      H1683   1.084       .  S
C1679      C1680   1.415       .  A
C1679      O1684   1.372       .  S
C1680      C1681   1.403       .  A
C1681      C1682   1.399       .  A
C1681      H1685   1.084       .  S
C1682      O1686   1.366       .  S
O1684      H1688   0.991       .  S
O1686      H1687   0.992       .  S
C1689      C1690   1.403       .  A
C1689      C1694   1.399       .  A
C1690      C1691   1.398       .  A
C1690      H1695   1.080       .  S
C1691      C1692   1.401       .  A
C1691      O1696   1.372       .  S
C1692      C1693   1.414       .  A
C1693      C1694   1.402       .  A
C1693      H1697   1.084       .  S
C1694      O1698   1.371       .  S
O1696      H1700   0.992       .  S
O1698      H1699   0.992       .  S
C1701      C1702   1.402       .  A
C1701      C1706   1.408       .  A
C1702      C1703   1.388       .  A
C1702      H1707   1.085       .  S
C1703      C1704   1.402       .  A
C1703      O1708   1.373       .  S
C1704      C1705   1.404       .  A
C1705      C1706   1.405       .  A
C1705      H1709   1.084       .  S
C1706      O1710   1.372       .  S
O1708      H1712   0.992       .  S
O1710      H1711   0.992       .  S
C1713      C1714   1.400       .  A
C1713      C1718   1.396       .  A
C1714      C1715   1.387       .  A
C1714      H1719   1.085       .  S
C1715      C1716   1.403       .  A
C1715      O1720   1.372       .  S
C1716      C1717   1.406       .  A
C1717      C1718   1.387       .  A
C1717      H1721   1.084       .  S
C1718      O1722   1.372       .  S
O1720      H1724   0.992       .  S
O1722      H1723   0.992       .  S
C1725      C1726   1.394       .  A
C1725      C1730   1.406       .  A
C1726      C1727   1.389       .  A
C1726      H1731   1.084       .  S
C1727      C1728   1.410       .  A
C1727      O1732   1.372       .  S
C1728      C1729   1.395       .  A
C1729      C1730   1.384       .  A
C1729      H1733   1.084       .  S
C1730      O1734   1.371       .  S
O1732      H1736   0.992       .  S
O1734      H1735   0.992       .  S
C1737      C1738   1.409       .  A
C1737      C1742   1.408       .  A
C1738      C1739   1.389       .  A
C1738      H1743   1.083       .  S
C1739      C1740   1.404       .  A
C1739      O1744   1.372       .  S
C1740      C1741   1.408       .  A
C1741      C1742   1.399       .  A
C1741      H1745   1.082       .  S
C1742      O1746   1.372       .  S
O1744      H1748   0.992       .  S
O1746      H1747   0.992       .  S
C1749      C1750   1.398       .  A
C1749      C1754   1.405       .  A
C1750      C1751   1.394       .  A
C1750      H1755   1.084       .  S
C1751      C1752   1.410       .  A
C1751      O1756   1.372       .  S
C1752      C1753   1.402       .  A
C1753      C1754   1.393       .  A
C1753      H1757   1.084       .  S
C1754      O1758   1.372       .  S
O1756      H1760   0.992       .  S
O1758      H1759   0.991       .  S
