geometry optimzed in LAMMPS
_audit_creation_date              2020-11-30 
_audit_creation_method            'lammps2cif' 
_symmetry_space_group_name_H-M    'P1' 
_symmetry_Int_Tables_number       1 
_symmetry_cell_setting            triclinic 
loop_ 
_symmetry_equiv_pos_as_xyz 
  x,y,z 
_cell_length_a                    64.37739575 
_cell_length_b                    66.04643251659049 
_cell_length_c                    63.70747701562497 
_cell_angle_alpha                 89.69845899494445 
_cell_angle_beta                  89.84952187693246 
_cell_angle_gamma                 90.16762352854647 
loop_ 
_atom_site_label 
_atom_site_type_symbol 
_atom_site_fract_x 
_atom_site_fract_y 
_atom_site_fract_z 
_atom_site_charge 
C1          C  0.05205974  0.97072403  0.02738448     0.04700
C2          C  0.06085175  0.96388403  0.00855703    -0.11400
C3          C  0.05417102  0.97158236  0.98914181     0.02200
C4          C  0.03824256  0.98607220  0.98870733    -0.10000
C5          C  0.02911701  0.99287102  0.00744065     0.04700
C6          C  0.03610308  0.98514037  0.02674088    -0.09400
H7          H  0.07365617  0.95328913  0.00909773     0.10300
H8          H  0.03291018  0.99205003  0.97379740     0.07800
H9          H  0.02945909  0.99067613  0.04126736     0.07700
N10         N  0.27299240  0.18561413  0.17632560    -0.25700
N11         N  0.25286723  0.18377698  0.18013752    -0.33600
C12         C  0.24711515  0.16447139  0.17718170     0.02600
C13         C  0.26439352  0.15343241  0.17142262     0.08700
C14         C  0.28058775  0.16732799  0.17104439    -0.04400
H15         H  0.23188182  0.15850175  0.18101125     0.09300
H16         H  0.29684571  0.16421090  0.16816585     0.10500
Cu17       Cu  0.23510516  0.20510567  0.19549265     0.44200
Cu18       Cu  0.28933469  0.21248742  0.18097287     0.42000
Cu19       Cu  0.26260030  0.24688509  0.21610712     0.43900
N20         N  0.22600685  0.21950549  0.22267015    -0.33100
N21         N  0.23702772  0.23422896  0.23111655    -0.27400
C22         C  0.23185311  0.23582821  0.25151575    -0.03500
C23         C  0.21684308  0.22135537  0.25613388     0.08800
C24         C  0.21337857  0.21148766  0.23736046     0.02600
H25         H  0.24011800  0.24513169  0.26264538     0.10200
H26         H  0.20485043  0.19750337  0.23540020     0.09300
N27         N  0.28941997  0.25434104  0.19964949    -0.34500
N28         N  0.29958740  0.24178356  0.18726808    -0.26700
C29         C  0.31641451  0.25139273  0.17943367    -0.02000
C30         C  0.31686649  0.27103075  0.18720906     0.06600
C31         C  0.29935484  0.27223796  0.19989436     0.04700
H32         H  0.32750395  0.24443926  0.16895353     0.09800
H33         H  0.29382850  0.28526351  0.20840327     0.08700
N34         N  0.23752555  0.97145520  0.18840519    -0.25700
N35         N  0.21850663  0.97850319  0.18625235    -0.33600
C36         C  0.21907801  0.99877268  0.18619673     0.02600
C37         C  0.23949151  0.00501758  0.18862108     0.08700
C38         C  0.25082944  0.98717696  0.18992776    -0.04400
H39         H  0.20565112  0.00820578  0.18342253     0.09300
H40         H  0.26746438  0.98565640  0.19154007     0.10500
Cu41       Cu  0.19297644  0.96046133  0.18066742     0.44200
Cu42       Cu  0.24333730  0.94066213  0.18762143     0.42000
Cu43       Cu  0.19977896  0.90710086  0.17193589     0.43900
N44         N  0.17057548  0.94238959  0.16726408    -0.33100
N45         N  0.17316302  0.92302976  0.16286236    -0.27400
C46         C  0.15731062  0.91696270  0.15056616    -0.03500
C47         C  0.14414042  0.93332865  0.14724849     0.08800
C48         C  0.15309540  0.94908815  0.15818813     0.02600
H49         H  0.15603651  0.90207101  0.14371340     0.10200
H50         H  0.14832160  0.96478952  0.15794842     0.09300
N51         N  0.22878542  0.89703656  0.18251150    -0.34500
N52         N  0.24423188  0.90931615  0.18764563    -0.26700
C53         C  0.26053226  0.89827787  0.19396871    -0.02000
C54         C  0.25533966  0.87799734  0.19289088     0.06600
C55         C  0.23500271  0.87775336  0.18562336     0.04700
H56         H  0.27493215  0.90468758  0.19966605     0.09800
H57         H  0.22542455  0.86458554  0.18280110     0.08700
N58         N  0.28566551  0.11953104  0.66497815    -0.25700
N59         N  0.27505579  0.11048616  0.65000870    -0.33600
C60         C  0.26858490  0.09229356  0.65681040     0.02600
C61         C  0.27546558  0.08950670  0.67717307     0.08700
C62         C  0.28631378  0.10716821  0.68183231    -0.04400
H63         H  0.25867616  0.08233056  0.64782254     0.09300
H64         H  0.29382455  0.11098060  0.69643413     0.10500
Cu65       Cu  0.26812744  0.12372124  0.62171341     0.44200
Cu66       Cu  0.29659805  0.14905579  0.66177312     0.42000
Cu67       Cu  0.27915729  0.17608419  0.61373162     0.43900
N68         N  0.26017588  0.13901637  0.59484724    -0.33100
N69         N  0.26398968  0.15841672  0.59154800    -0.27400
C70         C  0.25681107  0.16352333  0.57239314    -0.03500
C71         C  0.24800343  0.14641640  0.56336547     0.08800
C72         C  0.25052020  0.13122813  0.57812136     0.02600
H73         H  0.25784492  0.17854681  0.56564828     0.10200
H74         H  0.24611997  0.11545492  0.57670185     0.09300
N75         N  0.29534254  0.18924408  0.63843429    -0.34500
N76         N  0.30228066  0.17947602  0.65521549    -0.26700
C77         C  0.31228055  0.19268278  0.66768962    -0.02000
C78         C  0.31133912  0.21164767  0.65845913     0.06600
C79         C  0.30048812  0.20892107  0.63999640     0.04700
H80         H  0.31911963  0.18888031  0.68266762     0.09800
H81         H  0.29663172  0.22041608  0.62848786     0.08700
N82         N  0.21480025  0.94461167  0.77995753    -0.25700
N83         N  0.20701119  0.95774087  0.79337834    -0.33600
C84         C  0.21291422  0.97650585  0.78757515     0.02600
C85         C  0.22499208  0.97510477  0.76956315     0.08700
C86         C  0.22585024  0.95459037  0.76525907    -0.04400
H87         H  0.20851950  0.99014285  0.79580130     0.09300
H88         H  0.23319552  0.94745432  0.75199597     0.10500
Cu89       Cu  0.18761410  0.94928275  0.81799650     0.44200
Cu90       Cu  0.20889803  0.91391711  0.78138597     0.42000
Cu91       Cu  0.17429831  0.89537154  0.82182696     0.43900
N92         N  0.16740436  0.93699728  0.84012828    -0.33100
N93         N  0.16237562  0.91758994  0.84139089    -0.27400
C94         C  0.14856629  0.91497418  0.85707129    -0.03500
C95         C  0.14480678  0.93358884  0.86620820     0.08800
C96         C  0.15703029  0.94717776  0.85503982     0.02600
H97         H  0.14196854  0.90050699  0.86163613     0.10200
H98         H  0.15806509  0.96337242  0.85732123     0.09300
N99         N  0.18778722  0.87690052  0.79932835    -0.34500
N100        N  0.20033197  0.88392252  0.78454217    -0.26700
C101        C  0.20608073  0.86864569  0.77202880    -0.02000
C102        C  0.19681348  0.85098060  0.77925722     0.06600
C103        C  0.18527665  0.85683570  0.79663123     0.04700
H104        H  0.21590906  0.87047166  0.75838536     0.09800
H105        H  0.17585035  0.84726292  0.80669413     0.08700
C106        C  0.18722154  0.13457128  0.38199989     0.04700
C107        C  0.17527116  0.11722508  0.37789822    -0.11400
C108        C  0.17019193  0.10363513  0.39414306     0.02200
C109        C  0.17748237  0.10734606  0.41452365    -0.10000
C110        C  0.18990337  0.12434096  0.41860505     0.04700
C111        C  0.19461763  0.13800045  0.40235617    -0.09400
H112        H  0.16948089  0.11458481  0.36216208     0.10300
H113        H  0.17378708  0.09684833  0.42712245     0.07800
H114        H  0.20406540  0.15123460  0.40553513     0.07700
N115        N  0.42961715  0.48477155  0.16450804    -0.25700
N116        N  0.44209227  0.49429976  0.15121084    -0.33600
C117        C  0.44259966  0.51405509  0.15587731     0.02600
C118        C  0.42976641  0.51730006  0.17289918     0.08700
C119        C  0.42167219  0.49840300  0.17798536    -0.04400
H120        H  0.45110227  0.52538862  0.14693751     0.09300
H121        H  0.41081438  0.49484600  0.19042803     0.10500
Cu122      Cu  0.45585711  0.48115627  0.12550454     0.44200
Cu123      Cu  0.42358206  0.45386105  0.16252487     0.42000
Cu124      Cu  0.43916055  0.43164316  0.11201652     0.43900
N125        N  0.46210621  0.46837609  0.09680379    -0.33100
N126        N  0.45533840  0.45030814  0.09130177    -0.27400
C127        C  0.45996998  0.44729580  0.07093300    -0.03500
C128        C  0.47013064  0.46442093  0.06325218     0.08800
C129        C  0.47127907  0.47735842  0.08026437     0.02600
H130        H  0.45553259  0.43400127  0.06228092     0.10200
H131        H  0.47798851  0.49237796  0.08067979     0.09300
N132        N  0.42370212  0.41607173  0.13582725    -0.34500
N133        N  0.41870760  0.42374119  0.15432134    -0.26700
C134        C  0.40861512  0.40949936  0.16566340    -0.02000
C135        C  0.40698205  0.39220795  0.15360060     0.06600
C136        C  0.41664325  0.39692939  0.13481304     0.04700
H137        H  0.40202126  0.41189443  0.18105041     0.09800
H138        H  0.41805574  0.38729570  0.12121407     0.08700
N139        N  0.39739966  0.68529725  0.24460843    -0.25700
N140        N  0.41082081  0.67938837  0.25902567    -0.33600
C141        C  0.41721407  0.66055042  0.25464225     0.02600
C142        C  0.40749598  0.65431522  0.23646682     0.08700
C143        C  0.39511217  0.67042525  0.23041218    -0.04400
H144        H  0.42791462  0.65189442  0.26422351     0.09300
H145        H  0.38457235  0.67094887  0.21727391     0.10500
Cu146      Cu  0.41857590  0.69642331  0.28492864     0.44200
Cu147      Cu  0.38154556  0.71250607  0.24657551     0.42000
Cu148      Cu  0.38815236  0.74084190  0.29567047     0.43900
N149        N  0.42084092  0.71258726  0.31245230    -0.33100
N150        N  0.40902655  0.72827811  0.31708312    -0.27400
C151        C  0.41189010  0.73296888  0.33744337    -0.03500
C152        C  0.42633155  0.71964093  0.34590091     0.08800
C153        C  0.43166651  0.70705523  0.32950345     0.02600
H154        H  0.40331437  0.74451338  0.34571492     0.10200
H155        H  0.44125320  0.69361072  0.33041531     0.09300
N156        N  0.36951652  0.75017994  0.27065924    -0.34500
N157        N  0.36725723  0.73990026  0.25304280    -0.26700
C158        C  0.35466244  0.75022888  0.24007218    -0.02000
C159        C  0.34868129  0.76799621  0.24983108     0.06600
C160        C  0.35839591  0.76737631  0.26926287     0.04700
H161        H  0.35012214  0.74501589  0.22470652     0.09800
H162        H  0.35788927  0.77879890  0.28134818     0.08700
C163        C  0.52691514  0.49201153  0.88122329     0.04700
C164        C  0.51851236  0.48752319  0.90100178    -0.11400
C165        C  0.52816171  0.49451728  0.91927472     0.02200
C166        C  0.54644050  0.50604234  0.91756270    -0.10000
C167        C  0.55485887  0.51096215  0.89777840     0.04700
C168        C  0.54498694  0.50376612  0.87961292    -0.09400
H169        H  0.50449245  0.47843493  0.90213768     0.10300
H170        H  0.55401261  0.51133256  0.93168917     0.07800
H171        H  0.55097325  0.50771861  0.86422097     0.07700
N172        N  0.33110774  0.43717092  0.72496773    -0.25700
N173        N  0.34191961  0.44990735  0.73652910    -0.33600
C174        C  0.33194187  0.46764986  0.73743904     0.02600
C175        C  0.31391764  0.46618999  0.72575804     0.08700
C176        C  0.31378258  0.44653365  0.71816019    -0.04400
H177        H  0.33762523  0.48076719  0.74579058     0.09300
H178        H  0.30239140  0.43978607  0.70783719     0.10500
Cu179      Cu  0.37038699  0.44309263  0.74939489     0.44200
Cu180      Cu  0.34189689  0.40821669  0.71908763     0.42000
Cu181      Cu  0.39094746  0.39261586  0.74516151     0.43900
N182        N  0.39916310  0.43477416  0.76050376    -0.33100
N183        N  0.40681366  0.41626810  0.75947563    -0.27400
C184        C  0.42577923  0.41619176  0.76837296    -0.08700
C185        C  0.43026007  0.43567717  0.77509721     0.08800
C186        C  0.41296314  0.44696133  0.76987468     0.02600
H187        H  0.43562700  0.40298964  0.76962137     0.10200
H188        H  0.41031988  0.46282045  0.77307704     0.09300
N189        N  0.37231479  0.37376950  0.72705798    -0.34500
N190        N  0.35528636  0.37976420  0.71723638    -0.26700
C191        C  0.34734306  0.36412877  0.70653661    -0.02000
C192        C  0.35977664  0.34739895  0.70978047     0.06600
C193        C  0.37544692  0.35401157  0.72296948     0.04700
H194        H  0.33309721  0.36476548  0.69757850     0.09800
H195        H  0.38823382  0.34519111  0.72905725     0.08700
N196        N  0.23245773  0.62500028  0.69168543    -0.25700
N197        N  0.23576914  0.61798031  0.67262924    -0.33600
C198        C  0.23723687  0.59774176  0.67342207     0.02600
C199        C  0.23481850  0.59149932  0.69406475     0.08700
C200        C  0.23172524  0.60928714  0.70523247    -0.04400
H201        H  0.24183278  0.58851959  0.66028114     0.09300
H202        H  0.23014464  0.61085823  0.72203880     0.10500
Cu203      Cu  0.24341499  0.63620504  0.64751920     0.44200
Cu204      Cu  0.23161998  0.65589528  0.69775242     0.42000
Cu205      Cu  0.24410708  0.68993867  0.65294049     0.43900
N206        N  0.25963107  0.65516619  0.62768088    -0.33100
N207        N  0.26009712  0.67505185  0.62929142    -0.27400
C208        C  0.27453255  0.68242089  0.61590932    -0.03500
C209        C  0.28382873  0.66624665  0.60556368     0.08800
C210        C  0.27383116  0.64927356  0.61361868     0.02600
H211        H  0.27850011  0.69826675  0.61466944     0.10200
H212        H  0.27765832  0.63358419  0.61095505     0.09300
N213        N  0.23144883  0.69918072  0.68134847    -0.34500
N214        N  0.22820070  0.68720446  0.69778657    -0.26700
C215        C  0.22133860  0.69844837  0.71391866    -0.02000
C216        C  0.21985810  0.71832232  0.70720925     0.06600
C217        C  0.22636927  0.71824704  0.68652222     0.04700
H218        H  0.21743533  0.69252853  0.72930552     0.09800
H219        H  0.22788092  0.73120421  0.67615986     0.08700
C220        C  0.44385079  0.63046285  0.51211774     0.04700
C221        C  0.44891929  0.64232227  0.49446252    -0.11400
C222        C  0.43616907  0.65855218  0.48834689     0.02200
C223        C  0.41859349  0.66311313  0.50056663    -0.10000
C224        C  0.41373150  0.65165764  0.51853317     0.04700
C225        C  0.42634515  0.63525638  0.52416993    -0.09400
H226        H  0.46247500  0.63851803  0.48518135     0.10300
H227        H  0.40833637  0.67526696  0.49583719     0.07800
H228        H  0.42228615  0.62594522  0.53765057     0.07700
C229        C  0.68490042  0.59513439  0.89678017     0.04700
C230        C  0.69766900  0.59907206  0.87939821    -0.11400
C231        C  0.71619736  0.61009508  0.88183070     0.02200
C232        C  0.72176816  0.61705972  0.90182657    -0.10000
C233        C  0.70905591  0.61315638  0.91928858     0.04700
C234        C  0.69048787  0.60237351  0.91656358    -0.09400
H235        H  0.69343249  0.59313710  0.86416109     0.10300
H236        H  0.73617690  0.62533011  0.90383294     0.07800
H237        H  0.68038736  0.59941920  0.92987639     0.07700
N238        N  0.64477020  0.45173536  0.25912634    -0.25700
N239        N  0.63400522  0.46260592  0.27264824    -0.33600
C240        C  0.63755271  0.48237979  0.26890153     0.02600
C241        C  0.65136411  0.48400813  0.25229492     0.08700
C242        C  0.65553836  0.46426163  0.24644718    -0.04400
H243        H  0.63138387  0.49459596  0.27828588     0.09300
H244        H  0.66600567  0.45931664  0.23424571     0.10500
Cu245      Cu  0.61687895  0.44980909  0.29682661     0.44200
Cu246      Cu  0.64578377  0.42041846  0.25984403     0.42000
Cu247      Cu  0.62046047  0.39542300  0.30438334     0.43900
N248        N  0.60278048  0.43431129  0.32133020    -0.33100
N249        N  0.60441894  0.41460789  0.32469775    -0.27400
C250        C  0.59441248  0.40991246  0.34272274    -0.03500
C251        C  0.58589159  0.42750439  0.35086492     0.08800
C252        C  0.59159990  0.44259961  0.33685983     0.02600
H253        H  0.59348715  0.39484301  0.34942101     0.10200
H254        H  0.58854751  0.45864429  0.33826782     0.09300
N255        N  0.63701673  0.38026529  0.28102613    -0.34500
N256        N  0.64603420  0.38942043  0.26488569    -0.26700
C257        C  0.65587525  0.37556532  0.25313276    -0.02000
C258        C  0.65299835  0.35665113  0.26221764     0.06600
C259        C  0.64089861  0.36027988  0.27989026     0.04700
H260        H  0.66512201  0.37918914  0.23943000     0.09800
H261        H  0.63536063  0.34926100  0.29122333     0.08700
N262        N  0.74526109  0.62674477  0.17570220    -0.25700
N263        N  0.74335712  0.61542352  0.15878827    -0.33600
C264        C  0.73274855  0.59854560  0.16375356     0.02600
C265        C  0.72765478  0.59927938  0.18483423     0.08700
C266        C  0.73599509  0.61730444  0.19198289    -0.04400
H267        H  0.72842202  0.58697220  0.15260897     0.09300
H268        H  0.73438067  0.62365676  0.20748610     0.10500
Cu269      Cu  0.75189293  0.62479420  0.12908643     0.44200
Cu270      Cu  0.75768679  0.65561381  0.17494276     0.42000
Cu271      Cu  0.76271212  0.67786615  0.12266119     0.43900
N272        N  0.75402646  0.63905065  0.10031678    -0.33100
N273        N  0.75693609  0.65873194  0.09789435    -0.27400
C274        C  0.75540693  0.66348466  0.07741574    -0.03500
C275        C  0.75155351  0.64584842  0.06649473     0.08800
C276        C  0.75076960  0.63067756  0.08148163     0.02600
H277        H  0.75694656  0.67863657  0.07100496     0.10200
H278        H  0.74722525  0.61484600  0.07899709     0.09300
N279        N  0.76996497  0.69271918  0.15007441    -0.34500
N280        N  0.76840559  0.68461505  0.16902788    -0.26700
C281        C  0.77460653  0.69826585  0.18326586    -0.02000
C282        C  0.78032148  0.71580409  0.17274522     0.06600
C283        C  0.77718924  0.71172082  0.15172451     0.04700
H284        H  0.77456529  0.69568279  0.20004354     0.09800
H285        H  0.78018205  0.72167807  0.13852241     0.08700
N286        N  0.80006578  0.43875974  0.61114564    -0.25700
N287        N  0.78600547  0.45234092  0.60579667    -0.33600
C288        C  0.79464672  0.47084216  0.60605531     0.02600
C289        C  0.81519201  0.46901668  0.61216789     0.08700
C290        C  0.81811155  0.44836391  0.61508445    -0.04400
H291        H  0.78621084  0.48463285  0.60290037     0.09300
H292        H  0.83185508  0.44098521  0.62116618     0.10500
Cu293      Cu  0.75490087  0.44594891  0.60185818     0.44200
Cu294      Cu  0.79265360  0.40845577  0.61621916     0.42000
Cu295      Cu  0.73675824  0.39625322  0.61524971     0.43900
N296        N  0.72406478  0.43758543  0.60038646    -0.33100
N297        N  0.71719809  0.41917868  0.60477737    -0.27400
C298        C  0.69653330  0.41858624  0.60150700    -0.03500
C299        C  0.69017600  0.43766486  0.59500569     0.08800
C300        C  0.70806218  0.44927590  0.59449713     0.02600
H301        H  0.68689862  0.40535011  0.60379005     0.10200
H302        H  0.70947107  0.46492632  0.58964554     0.09300
N303        N  0.75977877  0.37684834  0.62620782    -0.34500
N304        N  0.77991440  0.38095603  0.62590870    -0.26700
C305        C  0.79022171  0.36544263  0.63480206    -0.02000
C306        C  0.77593018  0.35094926  0.64122677     0.06600
C307        C  0.75679195  0.35871805  0.63548246     0.04700
H308        H  0.80683910  0.36521190  0.63733869     0.09800
H309        H  0.74174396  0.35183455  0.63805302     0.08700
N310        N  0.89082508  0.61500708  0.68525974    -0.25700
N311        N  0.88147741  0.60428386  0.70010464    -0.33600
C312        C  0.88144682  0.58469983  0.69466976     0.02600
C313        C  0.89089662  0.58283969  0.67525825     0.08700
C314        C  0.89681051  0.60242002  0.66983331    -0.04400
H315        H  0.87270122  0.57310072  0.70289791     0.09300
H316        H  0.90321107  0.60742502  0.65496701     0.10500
Cu317      Cu  0.86334980  0.61650677  0.72356040     0.44200
Cu318      Cu  0.89064300  0.64650346  0.68453752     0.42000
Cu319      Cu  0.85457399  0.66989411  0.72139879     0.43900
N320        N  0.84143403  0.63092507  0.74180391    -0.33100
N321        N  0.83835101  0.65068090  0.74127471    -0.27400
C322        C  0.82299633  0.65536268  0.75473464    -0.03500
C323        C  0.81592474  0.63760415  0.76393069     0.08800
C324        C  0.82794568  0.62242004  0.75535451     0.02600
H325        H  0.81718629  0.67048786  0.75731896     0.10200
H326        H  0.82711817  0.60637128  0.75886008     0.09300
N327        N  0.87193059  0.68582597  0.69946271    -0.34500
N328        N  0.88524080  0.67750797  0.68624901    -0.26700
C329        C  0.89387078  0.69221048  0.67436792    -0.02000
C330        C  0.88551950  0.71064625  0.68033873     0.06600
C331        C  0.87166172  0.70594862  0.69628784     0.04700
H332        H  0.90514580  0.68959318  0.66206450     0.09800
H333        H  0.86228262  0.71639128  0.70522497     0.08700
C334        C  0.55974486  0.48394316  0.52611165     0.04700
C335        C  0.55844482  0.47323591  0.50723226    -0.11400
C336        C  0.54476058  0.47943651  0.49139509     0.02200
C337        C  0.53190116  0.49623894  0.49488883    -0.10000
C338        C  0.53285250  0.50689552  0.51391106     0.04700
C339        C  0.54684124  0.50067246  0.52951297    -0.09400
H340        H  0.56909217  0.46085221  0.50435290     0.10300
H341        H  0.52144076  0.50127437  0.48264861     0.07800
H342        H  0.54830382  0.50930972  0.54386224     0.07700
C343        C  0.89195647  0.12150700  0.01270706     0.04700
C344        C  0.88579000  0.12805427  0.99272717    -0.11400
C345        C  0.89495857  0.11988475  0.97465328     0.02200
C346        C  0.91086529  0.10545556  0.97686026    -0.10000
C347        C  0.91721227  0.09882966  0.99685662     0.04700
C348        C  0.90753744  0.10687297  0.01471137    -0.09400
H349        H  0.87320483  0.13885482  0.99127464     0.10300
H350        H  0.91830129  0.09937723  0.96298746     0.07800
H351        H  0.91183391  0.10149606  0.03019120     0.07700
N352        N  0.73779787  0.13365839  0.21715150    -0.25700
N353        N  0.74356768  0.12512977  0.19939288    -0.33600
C354        C  0.74396493  0.10499922  0.20182284     0.02600
C355        C  0.73841348  0.10036439  0.22222500     0.08700
C356        C  0.73460898  0.11896209  0.23160694    -0.04400
H357        H  0.75014479  0.09466916  0.19027522     0.09300
H358        H  0.73106714  0.12167364  0.24795878     0.10500
Cu359      Cu  0.75662748  0.14067993  0.17475729     0.44200
Cu360      Cu  0.73724966  0.16506454  0.22012194     0.42000
Cu361      Cu  0.76294567  0.19382926  0.17635158     0.43900
N362        N  0.77663328  0.15596556  0.15517895    -0.33100
N363        N  0.77915456  0.17580593  0.15522598    -0.27400
C364        C  0.79413656  0.18072975  0.14123437    -0.03500
C365        C  0.80153804  0.16295634  0.13245509     0.08800
C366        C  0.79004771  0.14764163  0.14165671     0.02600
H367        H  0.79974042  0.19594312  0.13827081     0.10200
H368        H  0.79146914  0.13155244  0.13890373     0.09300
N369        N  0.74508124  0.20653981  0.20019778    -0.34500
N370        N  0.73619568  0.19639194  0.21582480    -0.26700
C371        C  0.72497010  0.20935329  0.22743307    -0.02000
C372        C  0.72670326  0.22857566  0.21873160     0.06600
C373        C  0.73968947  0.22615948  0.20154595     0.04700
H374        H  0.71584145  0.20491785  0.24099876     0.09800
H375        H  0.74411880  0.23760818  0.19019771     0.08700
N376        N  0.81945901  0.93904235  0.25486316    -0.25700
N377        N  0.83500622  0.95058121  0.26110785    -0.33600
C378        C  0.82873158  0.96991665  0.26163460     0.02600
C379        C  0.80820873  0.97072009  0.25520897     0.08700
C380        C  0.80282509  0.95078027  0.25109625    -0.04400
H381        H  0.83851517  0.98239807  0.26629496     0.09300
H382        H  0.78817692  0.94522451  0.24512251     0.10500
Cu383      Cu  0.86447366  0.93996368  0.26726980     0.44200
Cu384      Cu  0.82240329  0.90816213  0.25068446     0.42000
Cu385      Cu  0.87493870  0.88759285  0.25745640     0.43900
N386        N  0.89317824  0.92689836  0.27184308    -0.33100
N387        N  0.89707580  0.90750321  0.26877162    -0.27400
C388        C  0.91690402  0.90369236  0.27412658    -0.03500
C389        C  0.92583885  0.92168489  0.28049274     0.08800
C390        C  0.91041732  0.93605065  0.27891188     0.02600
H391        H  0.92420879  0.88896144  0.27350214     0.10200
H392        H  0.91147482  0.95184383  0.28311548     0.09300
N393        N  0.84973163  0.87128385  0.24648706    -0.34500
N394        N  0.83066419  0.87850898  0.24473848    -0.26700
C395        C  0.81814894  0.86390514  0.23733673    -0.02000
C396        C  0.82993953  0.84675318  0.23408004     0.06600
C397        C  0.84987777  0.85196542  0.24000825     0.04700
H398        H  0.80181189  0.86586374  0.23394894     0.09800
H399        H  0.86351398  0.84240823  0.23973344     0.08700
N400        N  0.84646968  0.13426903  0.71707726    -0.25700
N401        N  0.84858211  0.12271058  0.73389104    -0.33600
C402        C  0.85270690  0.10367048  0.72788744     0.02600
C403        C  0.85333133  0.10317489  0.70617332     0.08700
C404        C  0.84941441  0.12291689  0.69981409    -0.04400
H405        H  0.85534145  0.09114006  0.73858923     0.09300
H406        H  0.84832369  0.12850327  0.68389195     0.10500
Cu407      Cu  0.84598108  0.13383026  0.76405938     0.44200
Cu408      Cu  0.83827874  0.16452883  0.71943125     0.42000
Cu409      Cu  0.83052484  0.18609802  0.77246798     0.43900
N410        N  0.84469663  0.14741170  0.79320081    -0.33100
N411        N  0.83912393  0.16635177  0.79673712    -0.27400
C412        C  0.84111052  0.17009644  0.81746885    -0.03500
C413        C  0.84849538  0.15269691  0.82725087     0.08800
C414        C  0.85042944  0.13870406  0.81132786     0.02600
H415        H  0.83823820  0.18459028  0.82470914     0.10200
H416        H  0.85596944  0.12327883  0.81271221     0.09300
N417        N  0.82356982  0.20108119  0.74429284    -0.34500
N418        N  0.82659889  0.19317767  0.72548481    -0.26700
C419        C  0.82038904  0.20645265  0.71076843    -0.02000
C420        C  0.81299453  0.22365385  0.72056336     0.06600
C421        C  0.81534656  0.21971593  0.74188618     0.04700
H422        H  0.82152921  0.20379673  0.69408328     0.09800
H423        H  0.81115786  0.22951014  0.75473721     0.08700
N424        N  0.91029686  0.94637579  0.62356273    -0.25700
N425        N  0.91930681  0.95813427  0.60935259    -0.33600
C426        C  0.91419137  0.97752335  0.61310411     0.02600
C427        C  0.90148122  0.97807174  0.63066096     0.08700
C428        C  0.89940274  0.95802018  0.63692979    -0.04400
H429        H  0.91973394  0.99033657  0.60399179     0.09300
H430        H  0.89050336  0.95230880  0.65007447     0.10500
Cu431      Cu  0.93892050  0.94721100  0.58612722     0.44200
Cu432      Cu  0.91339531  0.91500535  0.62369515     0.42000
Cu433      Cu  0.95066359  0.89364422  0.58627060     0.43900
N434        N  0.95880055  0.93353602  0.56479143    -0.33100
N435        N  0.96345118  0.91405410  0.56487865    -0.27400
C436        C  0.97627491  0.91020007  0.54862729    -0.03500
C437        C  0.97971711  0.92812496  0.53770427     0.08800
C438        C  0.96844537  0.94255955  0.54852469     0.02600
H439        H  0.98198066  0.89532079  0.54460523     0.10200
H440        H  0.96717510  0.95851048  0.54477935     0.09300
N441        N  0.93345333  0.87657929  0.60765390    -0.34500
N442        N  0.91963121  0.88422676  0.62076498    -0.26700
C443        C  0.91079730  0.86901731  0.63174755    -0.02000
C444        C  0.91953784  0.85082898  0.62543018     0.06600
C445        C  0.93387819  0.85634054  0.61009988     0.04700
H446        H  0.89865925  0.87115642  0.64325851     0.09800
H447        H  0.94412263  0.84648602  0.60144915     0.08700
C448        C  0.07383180  0.98501310  0.37986495     0.04700
C449        C  0.06867950  0.97721097  0.39982852    -0.11400
C450        C  0.05242648  0.96316427  0.40235370     0.02200
C451        C  0.04160757  0.95661983  0.38456275    -0.10000
C452        C  0.04662550  0.96408480  0.36453909     0.04700
C453        C  0.06264859  0.97837416  0.36222623    -0.09400
H454        H  0.07694371  0.98254709  0.41352459     0.10300
H455        H  0.02859268  0.94631003  0.38634707     0.07800
H456        H  0.06635938  0.98429516  0.34675807     0.07700
C457        C  0.99565394  0.94884649  0.48451178     0.14300
C458        C  0.01483554  0.93931537  0.48110988     0.01200
C459        C  0.02201332  0.92512866  0.49593307     0.16200
C460        C  0.01043990  0.92107406  0.51420724     0.25600
C461        C  0.99158981  0.93125967  0.51794967    -0.40700
C462        C  0.98420919  0.94494460  0.50272163     0.32600
C463        C  0.02718812  0.94471441  0.46217683     0.01300
F464        F  0.04051813  0.91572099  0.49304821    -0.13000
F465        F  0.96562440  0.95430109  0.50519612    -0.13600
C466        C  0.03265012  0.96504237  0.45843110     0.16200
C467        C  0.04153783  0.97092791  0.43930905     0.25600
C468        C  0.04544237  0.95652242  0.42358682    -0.40700
C469        C  0.04101273  0.93597539  0.42780351     0.32600
C470        C  0.03192670  0.93013136  0.44692498     0.14300
F471        F  0.02870209  0.97936179  0.47312131    -0.13000
F472        F  0.04508957  0.92159705  0.41321390    -0.13600
F473        F  0.04511144  0.99092317  0.43573610    -0.15800
F474        F  0.02680713  0.91039403  0.45009812    -0.14400
F475        F  0.98788470  0.96191141  0.47001194    -0.14400
F476        F  0.01808611  0.90783657  0.52859010    -0.15800
C477        C  0.87590091  0.02931061  0.63808106     0.14300
C478        C  0.87642325  0.03143164  0.66004045     0.01200
C479        C  0.88491394  0.01568306  0.67225410     0.16200
C480        C  0.89268672  0.99820021  0.66274279     0.25600
C481        C  0.89253389  0.99625588  0.64077668    -0.40700
C482        C  0.88408043  0.01198858  0.62853276     0.32600
C483        C  0.86878095  0.05020218  0.67031753     0.01300
F484        F  0.88633099  0.01752080  0.69342345    -0.13000
F485        F  0.88328973  0.01038986  0.60731364    -0.13600
C486        C  0.85430356  0.04902763  0.68686692     0.16200
C487        C  0.84893602  0.06634624  0.69819015     0.25600
C488        C  0.85760400  0.08528266  0.69293526    -0.40700
C489        C  0.87114101  0.08670064  0.67562601     0.32600
C490        C  0.87682584  0.06929230  0.66453089     0.14300
F491        F  0.84543695  0.03102825  0.69216749    -0.13000
F492        F  0.87983095  0.10474040  0.67019387    -0.13600
F493        F  0.83513479  0.06461310  0.71425768    -0.15800
F494        F  0.89101554  0.07096793  0.64881078    -0.14400
F495        F  0.86720194  0.04389518  0.62587742    -0.14400
F496        F  0.90118506  0.98354994  0.67500354    -0.15800
C497        C  0.01746981  0.92998557  0.32759925     0.14300
C498        C  0.00325752  0.94360404  0.31864808     0.01200
C499        C  0.00547118  0.96445574  0.32252320     0.16200
C500        C  0.02075979  0.97140180  0.33633394     0.25600
C501        C  0.03391771  0.95756624  0.34651243    -0.40700
C502        C  0.03261415  0.93690858  0.34152057     0.32600
C503        C  0.98464423  0.93594780  0.30760248     0.01300
F504        F  0.99179354  0.97790879  0.31425360    -0.13000
F505        F  0.04542776  0.92334440  0.35092565    -0.13600
C506        C  0.97050537  0.92329426  0.31835860     0.16200
C507        C  0.95172638  0.91776196  0.30902864     0.25600
C508        C  0.94673336  0.92499040  0.28895175    -0.40700
C509        C  0.96101340  0.93713627  0.27792232     0.32600
C510        C  0.97995072  0.94247517  0.28712402     0.14300
F511        F  0.97434621  0.91728537  0.33839227    -0.13000
F512        F  0.95639625  0.94409820  0.25839899    -0.13600
F513        F  0.93785747  0.90639530  0.32008760    -0.15800
F514        F  0.99352004  0.95432533  0.27624900    -0.14400
F515        F  0.01604019  0.90986148  0.32357867    -0.14400
F516        F  0.02158084  0.99140540  0.34108591    -0.15800
C517        C  0.74551945  0.04407694  0.22709958     0.14300
C518        C  0.75876743  0.04289801  0.24450311     0.01200
C519        C  0.76226022  0.06024377  0.25669050     0.16200
C520        C  0.75388089  0.07889541  0.25062781     0.25600
C521        C  0.74208363  0.08042507  0.23213559    -0.40700
C522        C  0.73725760  0.06270884  0.22094034     0.32600
C523        C  0.77117408  0.02443545  0.24806466     0.01300
F524        F  0.77488768  0.05932617  0.27370642    -0.13000
F525        F  0.72558407  0.06367158  0.20324016    -0.13600
C526        C  0.79274934  0.02517415  0.24497440     0.16200
C527        C  0.80469588  0.00769959  0.24702957     0.25600
C528        C  0.79531710  0.98910582  0.25252447    -0.40700
C529        C  0.77361285  0.98837822  0.25547774     0.32600
C530        C  0.76164088  0.00591436  0.25315860     0.14300
F531        F  0.80218854  0.04277963  0.23923671    -0.13000
F532        F  0.76398330  0.97084495  0.26104751    -0.13600
F533        F  0.82533506  0.00892724  0.24278493    -0.15800
F534        F  0.74076577  0.00488029  0.25606104    -0.14400
F535        F  0.74201909  0.02752058  0.21504701    -0.14400
F536        F  0.75901698  0.09568051  0.26168726    -0.15800
C537        C  0.84717051  0.13997558  0.10413379     0.14300
C538        C  0.84632257  0.14999481  0.08465217     0.01200
C539        C  0.83211313  0.16592103  0.08183057     0.16200
C540        C  0.81825453  0.17105573  0.09791545     0.25600
C541        C  0.81827245  0.16015301  0.11689734    -0.40700
C542        C  0.83318120  0.14492832  0.12007568     0.32600
C543        C  0.85889912  0.14264465  0.06677017     0.01300
F544        F  0.83076193  0.17561626  0.06304111    -0.13000
F545        F  0.83396716  0.13460777  0.13854979    -0.13600
C546        C  0.85655218  0.12255647  0.05989773     0.16200
C547        C  0.86757416  0.11567645  0.04244823     0.25600
C548        C  0.88096725  0.12879022  0.03149392    -0.40700
C549        C  0.88347980  0.14881519  0.03834813     0.32600
C550        C  0.87259279  0.15568471  0.05597368     0.14300
F551        F  0.84305533  0.10977855  0.06969807    -0.13000
F552        F  0.89657879  0.16160913  0.02804454    -0.13600
F553        F  0.86472567  0.09635947  0.03581835    -0.15800
F554        F  0.87550007  0.17498450  0.06260568    -0.14400
F555        F  0.86122088  0.12501508  0.10750708    -0.14400
F556        F  0.80384529  0.18563543  0.09437517    -0.15800
C557        C  0.87746150  0.15126260  0.92769246     0.14300
C558        C  0.87219281  0.13609513  0.91324275     0.01200
C559        C  0.87398606  0.11566473  0.91926357     0.16200
C560        C  0.88138221  0.11045356  0.93917495     0.25600
C561        C  0.88712122  0.12558182  0.95352445    -0.40700
C562        C  0.88488947  0.14605917  0.94766818     0.32600
C563        C  0.86625565  0.14135939  0.89139903     0.01300
F564        F  0.86851682  0.10071493  0.90578944    -0.13000
F565        F  0.89057215  0.16102479  0.96102712    -0.13600
C566        C  0.87851318  0.13442897  0.87468044     0.16200
C567        C  0.87288481  0.13850457  0.85395292     0.25600
C568        C  0.85485001  0.14968988  0.84941420    -0.40700
C569        C  0.84280675  0.15712880  0.86615243     0.32600
C570        C  0.84844859  0.15293800  0.88701912     0.14300
F571        F  0.89613781  0.12378173  0.87847058    -0.13000
F572        F  0.82514338  0.16768283  0.86232100    -0.13600
F573        F  0.88538023  0.13177687  0.83828909    -0.15800
F574        F  0.83618433  0.15959063  0.90290724    -0.14400
F575        F  0.87613846  0.17109894  0.92217741    -0.14400
F576        F  0.88260114  0.09057202  0.94456369    -0.15800
C577        C  0.87962008  0.76523424  0.66245684     0.14300
C578        C  0.90000960  0.77012926  0.65632653     0.01200
C579        C  0.91557039  0.75533482  0.65792074     0.16200
C580        C  0.91084874  0.73595827  0.66557669     0.25600
C581        C  0.89045082  0.73103086  0.67181408    -0.40700
C582        C  0.87486689  0.74587878  0.67013969     0.32600
C583        C  0.90506926  0.79071170  0.64842539     0.01300
F584        F  0.93548924  0.75984230  0.65257593    -0.13000
F585        F  0.85489025  0.74154439  0.67540987    -0.13600
C586        C  0.90207851  0.80765810  0.66127036     0.16200
C587        C  0.90690370  0.82711004  0.65390188     0.25600
C588        C  0.91462054  0.83007576  0.63335445    -0.40700
C589        C  0.91755699  0.81295704  0.62051234     0.32600
C590        C  0.91292605  0.79350214  0.62803921     0.14300
F591        F  0.89489677  0.80530838  0.68119911    -0.13000
F592        F  0.92431909  0.81495211  0.60041870    -0.13600
F593        F  0.90458260  0.84290717  0.66722039    -0.15800
F594        F  0.91567586  0.77736329  0.61521695    -0.14400
F595        F  0.86421977  0.77913769  0.66065890    -0.14400
F596        F  0.92641953  0.72228114  0.66761397    -0.15800
C597        C  0.63768505  0.43889615  0.56839204     0.14300
C598        C  0.63070588  0.45840523  0.57352723     0.01200
C599        C  0.64282694  0.47059212  0.58673846     0.16200
C600        C  0.66193085  0.46360326  0.59421053     0.25600
C601        C  0.66917569  0.44426168  0.58866292    -0.40700
C602        C  0.65673096  0.43184245  0.57595749     0.32600
C603        C  0.61167797  0.46653205  0.56363994     0.01300
F604        F  0.63624546  0.48936544  0.59218312    -0.13000
F605        F  0.66356187  0.41337629  0.56978406    -0.13600
C606        C  0.59242076  0.45674072  0.56641833     0.16200
C607        C  0.57506019  0.46300730  0.55491407     0.25600
C608        C  0.57675850  0.47922171  0.54069201    -0.40700
C609        C  0.59573320  0.48953766  0.53856726     0.32600
C610        C  0.61309059  0.48323657  0.54993673     0.14300
F611        F  0.59060976  0.44083374  0.57988986    -0.13000
F612        F  0.59769053  0.50502084  0.52458249    -0.13600
F613        F  0.55679468  0.45288455  0.55710817    -0.15800
F614        F  0.63158662  0.49267876  0.54662870    -0.14400
F615        F  0.62655456  0.42709059  0.55511200    -0.14400
F616        F  0.67335003  0.47574816  0.60689690    -0.15800
C617        C  0.86492310  0.49867291  0.62215761     0.14300
C618        C  0.85704260  0.51672457  0.63045131     0.01200
C619        C  0.83549484  0.51931887  0.63211850     0.16200
C620        C  0.82193079  0.50396098  0.62597874     0.25600
C621        C  0.82966710  0.48567853  0.61775438    -0.40700
C622        C  0.85134087  0.48328484  0.61572448     0.32600
C623        C  0.87089589  0.53242247  0.63911155     0.01300
F624        F  0.82759221  0.53647313  0.64064420    -0.13000
F625        F  0.85940067  0.46613009  0.60741304    -0.13600
C626        C  0.87166507  0.55173672  0.62984787     0.16200
C627        C  0.88026452  0.56804696  0.64075228     0.25600
C628        C  0.88789665  0.56525948  0.66126786    -0.40700
C629        C  0.88877939  0.54552934  0.66968252     0.32600
C630        C  0.88036863  0.52921638  0.65864794     0.14300
F631        F  0.86264585  0.55507362  0.61090609    -0.13000
F632        F  0.89652237  0.54227459  0.68921530    -0.13600
F633        F  0.87909343  0.58681129  0.63206345    -0.15800
F634        F  0.87976187  0.51063532  0.66785875    -0.14400
F635        F  0.88574500  0.49595023  0.62041079    -0.14400
F636        F  0.80129143  0.50668819  0.62924467    -0.15800
C637        C  0.77107607  0.30788813  0.68073166     0.14300
C638        C  0.78863014  0.29625233  0.67592634     0.01200
C639        C  0.80186004  0.30245607  0.65955197     0.16200
C640        C  0.79775048  0.32023954  0.64826719     0.25600
C641        C  0.78014754  0.33197969  0.65301179    -0.40700
C642        C  0.76679283  0.32556808  0.66932154     0.32600
C643        C  0.79336750  0.27772289  0.68810188     0.01300
F644        F  0.81887606  0.29132923  0.65463143    -0.13000
F645        F  0.74997080  0.33675271  0.67472599    -0.13600
C646        C  0.78928947  0.25859898  0.67959260     0.16200
C647        C  0.79495426  0.24102968  0.69050950     0.25600
C648        C  0.80510653  0.24228340  0.71007336    -0.40700
C649        C  0.80852279  0.26155194  0.71885702     0.32600
C650        C  0.80266239  0.27910188  0.70794318     0.14300
F651        F  0.77989829  0.25697222  0.66061238    -0.13000
F652        F  0.81841611  0.26352802  0.73751733    -0.13600
F653        F  0.79028120  0.22279553  0.68197027    -0.15800
F654        F  0.80669839  0.29751548  0.71640961    -0.14400
F655        F  0.75809886  0.30209528  0.69649916    -0.14400
F656        F  0.81076000  0.32573500  0.63241417    -0.15800
C657        C  0.82827029  0.79868021  0.20224306     0.14300
C658        C  0.80925318  0.79035260  0.20871751     0.01200
C659        C  0.79703684  0.80046315  0.22355195     0.16200
C660        C  0.80375462  0.81888499  0.23182857     0.25600
C661        C  0.82286847  0.82728958  0.22543683    -0.40700
C662        C  0.83509489  0.81703064  0.21058637     0.32600
C663        C  0.80191635  0.77129722  0.19959210     0.01300
F664        F  0.77863351  0.79244036  0.22998539    -0.13000
F665        F  0.85327373  0.82510491  0.20360157    -0.13600
C666        C  0.80774478  0.75273811  0.20850644     0.16200
C667        C  0.80074490  0.73461471  0.19977187     0.25600
C668        C  0.78783703  0.73489788  0.18196271    -0.40700
C669        C  0.78211059  0.75361942  0.17306052     0.32600
C670        C  0.78910896  0.77168841  0.18186385     0.14300
F671        F  0.82026499  0.75222537  0.22561856    -0.13000
F672        F  0.76926055  0.75449587  0.15622229    -0.13600
F673        F  0.80706755  0.71683380  0.20838215    -0.15800
F674        F  0.78334781  0.78961722  0.17316062    -0.14400
F675        F  0.84004659  0.78913049  0.18763507    -0.14400
F676        F  0.79182211  0.82825928  0.24642492    -0.15800
C677        C  0.54762198  0.43968522  0.44857486     0.14300
C678        C  0.55301058  0.45160118  0.43095983     0.01200
C679        C  0.55428139  0.47278547  0.43328539     0.16200
C680        C  0.55050585  0.48180489  0.45269060     0.25600
C681        C  0.54592101  0.46986775  0.47041857    -0.40700
C682        C  0.54435480  0.44873194  0.46818156     0.32600
C683        C  0.55853741  0.44227963  0.41041709     0.01300
F684        F  0.56030832  0.48478486  0.41698903    -0.13000
F685        F  0.53976453  0.43685458  0.48503681    -0.13600
C686        C  0.55022580  0.45015339  0.39167467     0.16200
C687        C  0.55856211  0.44466796  0.37224640     0.25600
C688        C  0.57483340  0.43055480  0.37104338    -0.40700
C689        C  0.58168304  0.42107078  0.38958378     0.32600
C690        C  0.57384448  0.42710091  0.40913616     0.14300
F691        F  0.53447317  0.46377561  0.39221632    -0.13000
F692        F  0.59713835  0.40714948  0.38897365    -0.13600
F693        F  0.55098272  0.45351671  0.35458198    -0.15800
F694        F  0.58235612  0.41914452  0.42680893    -0.14400
F695        F  0.54559089  0.41929762  0.44685139    -0.14400
F696        F  0.55259473  0.50219678  0.45440561    -0.15800
C697        C  0.70746456  0.56503032  0.22810127     0.14300
C698        C  0.69074216  0.55544280  0.21806431     0.01200
C699        C  0.68535766  0.56126143  0.19758920     0.16200
C700        C  0.69716091  0.57579765  0.18688783     0.25600
C701        C  0.71444731  0.58485154  0.19660022    -0.40700
C702        C  0.71920281  0.57969998  0.21747932     0.32600
C703        C  0.68057697  0.53772555  0.22788285     0.01300
F704        F  0.66924273  0.55217418  0.18761656    -0.13000
F705        F  0.73586094  0.58805098  0.22722272    -0.13600
C706        C  0.65938074  0.53796349  0.23314488     0.16200
C707        C  0.64983186  0.52055028  0.24137148     0.25600
C708        C  0.66133103  0.50262310  0.24409495    -0.40700
C709        C  0.68259139  0.50257671  0.23895640     0.32600
C710        C  0.69210856  0.51998356  0.23098227     0.14300
F711        F  0.64798467  0.55501625  0.23025527    -0.13000
F712        F  0.69433057  0.48578785  0.24202710    -0.13600
F713        F  0.62924739  0.52102459  0.24602449    -0.15800
F714        F  0.71257140  0.51940686  0.22578586    -0.14400
F715        F  0.71276661  0.55970741  0.24798883    -0.14400
F716        F  0.69166393  0.58098635  0.16702011    -0.15800
C717        C  0.71375103  0.28407659  0.22735956     0.14300
C718        C  0.69373533  0.28277595  0.23609836     0.01200
C719        C  0.68465771  0.26365569  0.23924529     0.16200
C720        C  0.69538858  0.24606242  0.23376422     0.25600
C721        C  0.71551414  0.24724516  0.22505168    -0.40700
C722        C  0.72458770  0.26648724  0.22194744     0.32600
C723        C  0.68255763  0.30131396  0.24255774     0.01300
F724        F  0.66517294  0.26205774  0.24730602    -0.13000
F725        F  0.74418595  0.26831088  0.21423849    -0.13600
C726        C  0.67652720  0.31583870  0.22762126     0.16200
C727        C  0.66643240  0.33357429  0.23391647     0.25600
C728        C  0.66236774  0.33720156  0.25534625    -0.40700
C729        C  0.66810759  0.32235709  0.27019680     0.32600
C730        C  0.67804354  0.30459946  0.26382991     0.14300
F731        F  0.68021679  0.31271351  0.20689390    -0.13000
F732        F  0.66496301  0.32531498  0.29101975    -0.13600
F733        F  0.66031512  0.34698696  0.21896151    -0.15800
F734        F  0.68387992  0.29082909  0.27855821    -0.14400
F735        F  0.72299525  0.30239968  0.22453569    -0.14400
F736        F  0.68571742  0.22793851  0.23637356    -0.15800
C737        C  0.72136915  0.61108360  0.97723552     0.14300
C738        C  0.72950233  0.63053671  0.98076343     0.01200
C739        C  0.73042826  0.64451058  0.96407474     0.16200
C740        C  0.72336225  0.63906624  0.94414979     0.25600
C741        C  0.71568095  0.61940923  0.94051925    -0.40700
C742        C  0.71482698  0.60546949  0.95727180     0.32600
C743        C  0.73691919  0.63600258  0.00192915     0.01300
F744        F  0.73851116  0.66329773  0.96697405    -0.13000
F745        F  0.70818128  0.58617258  0.95423808    -0.13600
C746        C  0.75129567  0.62349859  0.01228769     0.16200
C747        C  0.75640244  0.62704520  0.03318979     0.25600
C748        C  0.74768051  0.64348038  0.04391345    -0.40700
C749        C  0.73424811  0.65672007  0.03324605     0.32600
C750        C  0.72872441  0.65288114  0.01243227     0.14300
F751        F  0.76015169  0.60761987  0.00222403    -0.13000
F752        F  0.72543577  0.67259446  0.04334182    -0.13600
F753        F  0.76985426  0.61436052  0.04300078    -0.15800
F754        F  0.71452394  0.66499757  0.00294072    -0.14400
F755        F  0.71964497  0.59748172  0.99321513    -0.14400
F756        F  0.72381782  0.65307887  0.92848080    -0.15800
C757        C  0.76453925  0.61558806  0.84827666     0.14300
C758        C  0.75634594  0.62391987  0.82979369     0.01200
C759        C  0.73490336  0.62721131  0.82814771     0.16200
C760        C  0.72176727  0.62251364  0.84499674     0.25600
C761        C  0.72993021  0.61427146  0.86364255    -0.40700
C762        C  0.75143713  0.61064768  0.86503406     0.32600
C763        C  0.77026820  0.62861643  0.81207169     0.01300
F764        F  0.72678594  0.63530354  0.81034910    -0.13000
F765        F  0.75972652  0.60197289  0.88246736    -0.13600
C766        C  0.77053440  0.61599602  0.79445190     0.16200
C767        C  0.78515001  0.61917650  0.77852375     0.25600
C768        C  0.79949347  0.63521970  0.77991052    -0.40700
C769        C  0.79859562  0.64837504  0.79717320     0.32600
C770        C  0.78417936  0.64496288  0.81325944     0.14300
F771        F  0.75706433  0.60020357  0.79305198    -0.13000
F772        F  0.81233520  0.66389668  0.79899067    -0.13600
F773        F  0.78525186  0.60661722  0.76172178    -0.15800
F774        F  0.78401632  0.65735403  0.83020003    -0.14400
F775        F  0.78522847  0.61196241  0.84992164    -0.14400
F776        F  0.70117498  0.62657592  0.84332182    -0.15800
C777        C  0.46001315  0.57565117  0.51630625     0.14300
C778        C  0.48104741  0.57760405  0.52178504     0.01200
C779        C  0.48925723  0.59690946  0.52591253     0.16200
C780        C  0.47689686  0.61413993  0.52350879     0.25600
C781        C  0.45616456  0.61226050  0.51705281    -0.40700
C782        C  0.44762568  0.59289148  0.51397831     0.32600
C783        C  0.49494292  0.55986291  0.52078923     0.01300
F784        F  0.50941697  0.59905096  0.53171035    -0.13000
F785        F  0.42762916  0.59077709  0.50759479    -0.13600
C786        C  0.50993197  0.55883184  0.50477986     0.16200
C787        C  0.52242741  0.54170141  0.50275250     0.25600
C788        C  0.52020937  0.52534061  0.51678217    -0.40700
C789        C  0.50559039  0.52657273  0.53316804     0.32600
C790        C  0.49288313  0.54367244  0.53504527     0.14300
F791        F  0.51204629  0.57425238  0.49074213    -0.13000
F792        F  0.50323035  0.51096986  0.54693407    -0.13600
F793        F  0.53678613  0.54110194  0.48711718    -0.15800
F794        F  0.47854111  0.54442742  0.55067964    -0.14400
F795        F  0.45183385  0.55715512  0.51203420    -0.14400
F796        F  0.48522412  0.63270734  0.52708234    -0.15800
C797        C  0.35713636  0.65852113  0.53258575     0.14300
C798        C  0.35824271  0.66248687  0.55422298     0.01200
C799        C  0.37781037  0.66365217  0.56392636     0.16200
C800        C  0.39593208  0.66041907  0.55224892     0.25600
C801        C  0.39473969  0.65604917  0.53071818    -0.40700
C802        C  0.37522581  0.65530056  0.52094423     0.32600
C803        C  0.33893762  0.66409880  0.56680017     0.01300
F804        F  0.37933031  0.66719014  0.58484311    -0.13000
F805        F  0.37365410  0.65070864  0.50025674    -0.13600
C806        C  0.32455754  0.64811394  0.56679663     0.16200
C807        C  0.30631332  0.64929876  0.57856238     0.25600
C808        C  0.30230692  0.66623072  0.59138403    -0.40700
C809        C  0.31675700  0.68237745  0.59120441     0.32600
C810        C  0.33479520  0.68134405  0.57889581     0.14300
F811        F  0.32840064  0.63102657  0.55568500    -0.13000
F812        F  0.31393682  0.69895921  0.60333011    -0.13600
F813        F  0.29254694  0.63378650  0.57709936    -0.15800
F814        F  0.34824651  0.69721981  0.57879125    -0.14400
F815        F  0.33846317  0.65753797  0.52277301    -0.14400
F816        F  0.41465933  0.66148882  0.56194422    -0.15800
C817        C  0.29349378  0.51881544  0.71540636     0.14300
C818        C  0.27190714  0.51570714  0.71520026     0.01200
C819        C  0.26405327  0.49589260  0.71723829     0.16200
C820        C  0.27766595  0.47954262  0.72018734     0.25600
C821        C  0.29926718  0.48287383  0.72121302    -0.40700
C822        C  0.30699650  0.50264255  0.71842073     0.32600
C823        C  0.25810472  0.53344289  0.71248871     0.01300
F824        F  0.24325287  0.49246827  0.71694533    -0.13000
F825        F  0.32775004  0.50634647  0.71810179    -0.13600
C826        C  0.24536918  0.53521499  0.69472578     0.16200
C827        C  0.23624669  0.55382735  0.68968703     0.25600
C828        C  0.23994692  0.57101777  0.70218790    -0.40700
C829        C  0.25113084  0.56866305  0.72100169     0.32600
C830        C  0.25999308  0.55000372  0.72613176     0.14300
F831        F  0.24306630  0.51940614  0.68138733    -0.13000
F832        F  0.25514462  0.58472058  0.73356558    -0.13600
F833        F  0.22457269  0.55525627  0.67202460    -0.15800
F834        F  0.27166692  0.54844201  0.74379049    -0.14400
F835        F  0.30157818  0.53762850  0.71237720    -0.14400
F836        F  0.26969975  0.46064335  0.72281440    -0.15800
C837        C  0.60816761  0.53035739  0.88160689     0.14300
C838        C  0.61004524  0.54771352  0.89404110     0.01200
C839        C  0.59368047  0.55327040  0.90735540     0.16200
C840        C  0.57561577  0.54152786  0.90833207     0.25600
C841        C  0.57375247  0.52383914  0.89616554    -0.40700
C842        C  0.59020024  0.51846001  0.88267261     0.32600
C843        C  0.62942823  0.55960591  0.89376122     0.01300
F844        F  0.59540749  0.56986551  0.91973362    -0.13000
F845        F  0.58919624  0.50134962  0.87099804    -0.13600
C846        C  0.62987059  0.57913807  0.88493303     0.16200
C847        C  0.64819511  0.59056391  0.88528939     0.25600
C848        C  0.66610073  0.58263979  0.89473624    -0.40700
C849        C  0.66567113  0.56308157  0.90346043     0.32600
C850        C  0.64746503  0.55157332  0.90285991     0.14300
F851        F  0.61253220  0.58711345  0.87610795    -0.13000
F852        F  0.68287020  0.55525926  0.91271899    -0.13600
F853        F  0.64834067  0.60955298  0.87702344    -0.15800
F854        F  0.64722954  0.53280091  0.91165492    -0.14400
F855        F  0.62384324  0.52489909  0.86852593    -0.14400
F856        F  0.55985569  0.54762228  0.92099673    -0.15800
C857        C  0.51282186  0.46115146  0.83352824     0.14300
C858        C  0.49313024  0.46905960  0.82867900     0.01200
C859        C  0.48538495  0.48541772  0.84036177     0.16200
C860        C  0.49678940  0.49327187  0.85704667     0.25600
C861        C  0.51611553  0.48496988  0.86228279    -0.40700
C862        C  0.52427334  0.46909882  0.85024918     0.32600
C863        C  0.47976746  0.45943995  0.81268135     0.01300
F864        F  0.46628951  0.49314898  0.83626618    -0.13000
F865        F  0.54288568  0.46078361  0.85526805    -0.13600
C866        C  0.47346084  0.43916571  0.81514594     0.16200
C867        C  0.45809620  0.43100365  0.80217512     0.25600
C868        C  0.44869266  0.44306190  0.78662896    -0.40700
C869        C  0.45596203  0.46296949  0.78337044     0.32600
C870        C  0.47138645  0.47105690  0.79625886     0.14300
F871        F  0.48112773  0.42768624  0.83106529    -0.13000
F872        F  0.44792989  0.47474721  0.76787866    -0.13600
F873        F  0.45139066  0.41181446  0.80589813    -0.15800
F874        F  0.47771407  0.49047692  0.79312929    -0.14400
F875        F  0.52074623  0.44553661  0.82231074    -0.14400
F876        F  0.48876880  0.50870255  0.86847397    -0.15800
C877        C  0.44452342  0.66965968  0.43039391     0.14300
C878        C  0.44162050  0.69072165  0.42965052     0.01200
C879        C  0.43908159  0.70140631  0.44846100     0.16200
C880        C  0.43846355  0.69107897  0.46769494     0.25600
C881        C  0.44006198  0.66980629  0.46841241    -0.40700
C882        C  0.44363376  0.65925762  0.44957073     0.32600
C883        C  0.43879947  0.70104227  0.40917720     0.01300
F884        F  0.43663180  0.72181451  0.44810247    -0.13000
F885        F  0.44481165  0.63873466  0.44948051    -0.13600
C886        C  0.41913227  0.70855764  0.40373485     0.16200
C887        C  0.41538635  0.71595082  0.38349223     0.25600
C888        C  0.43124838  0.71579982  0.36826688    -0.40700
C889        C  0.45125481  0.70929251  0.37408499     0.32600
C890        C  0.45498548  0.70191992  0.39438422     0.14300
F891        F  0.40314728  0.70745638  0.41764706    -0.13000
F892        F  0.46707468  0.70966223  0.35994594    -0.13600
F893        F  0.39581581  0.72172277  0.37838971    -0.15800
F894        F  0.47423080  0.69514360  0.39945697    -0.14400
F895        F  0.44684463  0.65898823  0.41238038    -0.14400
F896        F  0.43589043  0.70184931  0.48560373    -0.15800
C897        C  0.48593508  0.49252755  0.01346214     0.14300
C898        C  0.49253749  0.47662483  0.00061087     0.01200
C899        C  0.49115952  0.45662985  0.00805028     0.16200
C900        C  0.48366011  0.45258644  0.02828413     0.25600
C901        C  0.47738113  0.46853741  0.04146167    -0.40700
C902        C  0.47837096  0.48856848  0.03365273     0.32600
C903        C  0.50149972  0.48099292  0.97969981     0.01300
F904        F  0.49715654  0.44100858  0.99568124    -0.13000
F905        F  0.47171178  0.50441414  0.04532165    -0.13600
C906        C  0.52252787  0.47689440  0.97572224     0.16200
C907        C  0.53123564  0.48135370  0.95611045     0.25600
C908        C  0.51900254  0.48992906  0.94012361    -0.40700
C909        C  0.49792780  0.49407456  0.94417098     0.32600
C910        C  0.48926496  0.48966933  0.96383112     0.14300
F911        F  0.53469715  0.46884788  0.99099232    -0.13000
F912        F  0.48584488  0.50280386  0.92922841    -0.13600
F913        F  0.55154087  0.47696605  0.95262467    -0.15800
F914        F  0.46889769  0.49375233  0.96737035    -0.14400
F915        F  0.48723527  0.51199060  0.00658533    -0.14400
F916        F  0.48323328  0.43310101  0.03512775    -0.15800
C917        C  0.43768896  0.57016939  0.19379819     0.14300
C918        C  0.41737590  0.57568877  0.19921765     0.01200
C919        C  0.40106852  0.56179583  0.19650963     0.16200
C920        C  0.40504843  0.54255808  0.18829486     0.25600
C921        C  0.42541330  0.53706144  0.18267839    -0.40700
C922        C  0.44169310  0.55102309  0.18557856     0.32600
C923        C  0.41348251  0.59574775  0.20840788     0.01300
F924        F  0.38129594  0.56702009  0.20153418    -0.13000
F925        F  0.46159142  0.54595772  0.18089078    -0.13600
C926        C  0.41400811  0.61323456  0.19578224     0.16200
C927        C  0.41154773  0.63235410  0.20482387     0.25600
C928        C  0.40897171  0.63418533  0.22665468    -0.40700
C929        C  0.40829561  0.61659998  0.23920452     0.32600
C930        C  0.41039104  0.59751823  0.23010412     0.14300
F931        F  0.41716509  0.61175249  0.17476564    -0.13000
F932        F  0.40535304  0.61787287  0.26026551    -0.13600
F933        F  0.41254206  0.64909274  0.19239461    -0.15800
F934        F  0.40992064  0.58074446  0.24251389    -0.14400
F935        F  0.45369447  0.58326617  0.19679647    -0.14400
F936        F  0.38893996  0.52963011  0.18512725    -0.15800
C937        C  0.12336193  0.01506888  0.38864540     0.14300
C938        C  0.11833210  0.03368283  0.37927060     0.01200
C939        C  0.09954218  0.03563472  0.36834223     0.16200
C940        C  0.08546188  0.01946825  0.36762062     0.25600
C941        C  0.08995062  0.00108279  0.37794375    -0.40700
C942        C  0.10930119  0.99887594  0.38797921     0.32600
C943        C  0.13166456  0.05161378  0.38264673     0.01300
F944        F  0.09454081  0.05348777  0.35900847    -0.13000
F945        F  0.11440348  0.98114753  0.39751746    -0.13600
C946        C  0.15044744  0.05407890  0.37166364     0.16200
C947        C  0.16292990  0.07115252  0.37517942     0.25600
C948        C  0.15691151  0.08577166  0.38998218    -0.40700
C949        C  0.13811679  0.08320313  0.40096392     0.32600
C950        C  0.12555249  0.06631370  0.39723584     0.14300
F951        F  0.15660867  0.03999870  0.35752225    -0.13000
F952        F  0.13178005  0.09724973  0.41507110    -0.13600
F953        F  0.18109577  0.07321435  0.36449415    -0.15800
F954        F  0.10745895  0.06414995  0.40802962    -0.14400
F955        F  0.14148258  0.01289698  0.39926772    -0.14400
F956        F  0.06692129  0.02224157  0.35793054    -0.15800
C957        C  0.21882106  0.75781591  0.74986450     0.14300
C958        C  0.20490881  0.77201327  0.74143767     0.01200
C959        C  0.19479735  0.76781836  0.72245095     0.16200
C960        C  0.19932339  0.75005416  0.71150073     0.25600
C961        C  0.21372381  0.73611670  0.71961396    -0.40700
C962        C  0.22304962  0.73987310  0.73913394     0.32600
C963        C  0.20258860  0.79199983  0.75139868     0.01300
F964        F  0.18124126  0.78133756  0.71410707    -0.13000
F965        F  0.23714693  0.72674241  0.74721800    -0.13600
C966        C  0.21911022  0.80584206  0.75048781     0.16200
C967        C  0.21729819  0.82486722  0.75972673     0.25600
C968        C  0.19880040  0.83048901  0.77002207    -0.40700
C969        C  0.18222494  0.81649086  0.77094942     0.32600
C970        C  0.18411456  0.79740723  0.76163103     0.14300
F971        F  0.23699861  0.80095168  0.74039221    -0.13000
F972        F  0.16397456  0.82142308  0.78029461    -0.13600
F973        F  0.23389881  0.83756360  0.75894346    -0.15800
F974        F  0.16795923  0.78417539  0.76263020    -0.14400
F975        F  0.22875251  0.76166669  0.76819836    -0.14400
F976        F  0.18974663  0.74649139  0.69291360    -0.15800
C977        C  0.21431748  0.12716585  0.51898121     0.14300
C978        C  0.22235633  0.13793846  0.50170761     0.01200
C979        C  0.23846408  0.15200152  0.50488223     0.16200
C980        C  0.24656322  0.15509554  0.52497474     0.25600
C981        C  0.23866593  0.14417516  0.54227347    -0.40700
C982        C  0.22231102  0.13030154  0.53907367     0.32600
C983        C  0.21401018  0.13441080  0.48038684     0.01300
F984        F  0.24634192  0.16278604  0.48848351    -0.13000
F985        F  0.21381859  0.11989173  0.55541961    -0.13600
C986        C  0.19276137  0.13726683  0.47623603     0.16200
C987        C  0.18487413  0.13383145  0.45612591     0.25600
C988        C  0.19814943  0.12773784  0.43985511    -0.40700
C989        C  0.21936169  0.12489431  0.44393026     0.32600
C990        C  0.22722828  0.12807609  0.46409148     0.14300
F991        F  0.17974127  0.14375619  0.49157714    -0.13000
F992        F  0.23235521  0.11870313  0.42843232    -0.13600
F993        F  0.16435164  0.13680394  0.45239598    -0.15800
F994        F  0.24767106  0.12459902  0.46782352    -0.14400
F995        F  0.19899278  0.11324510  0.51632074    -0.14400
F996        F  0.26264117  0.16822007  0.52731133    -0.15800
C997        C  0.26035102  0.00473964  0.73270293     0.14300
C998        C  0.24981079  0.02326216  0.73109408     0.01200
C999        C  0.23126298  0.02599241  0.74236188     0.16200
C1000       C  0.22333018  0.01047357  0.75505566     0.25600
C1001       C  0.23379311  0.99183753  0.75668921    -0.40700
C1002       C  0.25244090  0.98916150  0.74539808     0.32600
C1003       C  0.25788548  0.03974373  0.71750252     0.01300
F1004       F  0.22047779  0.04355560  0.74057346    -0.13000
F1005       F  0.26331412  0.97164392  0.74697456    -0.13600
C1006       C  0.26021636  0.03679480  0.69582515     0.16200
C1007       C  0.26651678  0.05279163  0.68281140     0.25600
C1008       C  0.27040584  0.07216012  0.69122578    -0.40700
C1009       C  0.26842378  0.07490606  0.71305622     0.32600
C1010       C  0.26236220  0.05881087  0.72604182     0.14300
F1011       F  0.25574193  0.01856366  0.68714167    -0.13000
F1012       F  0.27138364  0.09334762  0.72185078    -0.13600
F1013       F  0.26882761  0.04921022  0.66197617    -0.15800
F1014       F  0.26060846  0.06190082  0.74702541    -0.14400
F1015       F  0.27848246  0.00185392  0.72221057    -0.14400
F1016       F  0.20495895  0.01348564  0.76503667    -0.15800
C1017       C  0.35204177  0.29054591  0.70788559     0.14300
C1018       C  0.34327577  0.28818453  0.68784329     0.01200
C1019       C  0.34171775  0.30511519  0.67449867     0.16200
C1020       C  0.34792328  0.32422568  0.68138967     0.25600
C1021       C  0.35585932  0.32678357  0.70175377    -0.40700
C1022       C  0.35840051  0.30969222  0.71475882     0.32600
C1023       C  0.33503688  0.26830205  0.68103956     0.01300
F1024       F  0.33402379  0.30314926  0.65478393    -0.13000
F1025       F  0.36588200  0.31165607  0.73454750    -0.13600
C1026       C  0.31414588  0.26646203  0.67489822     0.16200
C1027       C  0.30644399  0.24797196  0.66767503     0.25600
C1028       C  0.31938703  0.23091502  0.66680910    -0.40700
C1029       C  0.34010092  0.23255020  0.67351888     0.32600
C1030       C  0.34793459  0.25116980  0.68039261     0.14300
F1031       F  0.30112871  0.28256118  0.67612052    -0.13000
F1032       F  0.35295997  0.21632258  0.67261896    -0.13600
F1033       F  0.28618538  0.24660196  0.66195736    -0.15800
F1034       F  0.36827033  0.25263867  0.68578640    -0.14400
F1035       F  0.35350124  0.27448514  0.72118391    -0.14400
F1036       F  0.34618892  0.34027033  0.66809956    -0.15800
C1037       C  0.27323733  0.82870595  0.21795271     0.14300
C1038       C  0.29489718  0.83012654  0.21541701     0.01200
C1039       C  0.30329867  0.84670535  0.20439298     0.16200
C1040       C  0.29033401  0.86184734  0.19645122     0.25600
C1041       C  0.26866312  0.86080306  0.19948154    -0.40700
C1042       C  0.26020515  0.84386698  0.20999449     0.32600
C1043       C  0.30875959  0.81436874  0.22428405     0.01300
F1044       F  0.32416490  0.84850014  0.20176955    -0.13000
F1045       F  0.23943095  0.84233590  0.21334403    -0.13600
C1046       C  0.32170890  0.80305881  0.21104752     0.16200
C1047       C  0.33477274  0.78814971  0.21933839     0.25600
C1048       C  0.33513034  0.78418438  0.24111291    -0.40700
C1049       C  0.32228515  0.79574670  0.25437311     0.32600
C1050       C  0.30925825  0.81069413  0.24602071     0.14300
F1051       F  0.32153096  0.80631710  0.18998479    -0.13000
F1052       F  0.32186042  0.79228078  0.27538530    -0.13600
F1053       F  0.34741755  0.77796644  0.20600980    -0.15800
F1054       F  0.29726515  0.82177469  0.25920818    -0.14400
F1055       F  0.26471987  0.81261290  0.22819364    -0.14400
F1056       F  0.29903350  0.87748832  0.18562877    -0.15800
C1057       C  0.22365066  0.19716059  0.30952669     0.14300
C1058       C  0.20344530  0.19022828  0.31378809     0.01200
C1059       C  0.18725246  0.19531415  0.30000901     0.16200
C1060       C  0.19143643  0.20635915  0.28163953     0.25600
C1061       C  0.21180492  0.21274350  0.27700418    -0.40700
C1062       C  0.22780719  0.20841230  0.29134822     0.32600
C1063       C  0.19965334  0.17631042  0.33164318     0.01300
F1064       F  0.16761257  0.18867762  0.30381811    -0.13000
F1065       F  0.24775306  0.21376991  0.28707302    -0.13600
C1066       C  0.18760185  0.18237383  0.34889509     0.16200
C1067       C  0.18389001  0.16891129  0.36555984     0.25600
C1068       C  0.19189624  0.14913194  0.36496160    -0.40700
C1069       C  0.20406084  0.14315111  0.34777836     0.32600
C1070       C  0.20801156  0.15667802  0.33129199     0.14300
F1071       F  0.17954982  0.20133461  0.34960026    -0.13000
F1072       F  0.21224524  0.12424095  0.34709558    -0.13600
F1073       F  0.17211093  0.17499458  0.38206067    -0.15800
F1074       F  0.21970481  0.15052014  0.31475796    -0.14400
F1075       F  0.23950140  0.19240010  0.32265885    -0.14400
F1076       F  0.17571993  0.21035306  0.26807524    -0.15800
C1077       C  0.23914974  0.06216395  0.19097722     0.14300
C1078       C  0.25784664  0.06726302  0.18083893     0.01200
C1079       C  0.27180137  0.05179416  0.17546782     0.16200
C1080       C  0.26643215  0.03142235  0.17889829     0.25600
C1081       C  0.24699872  0.02629292  0.18777694    -0.40700
C1082       C  0.23381745  0.04196744  0.19448570     0.32600
C1083       C  0.26196727  0.08873733  0.17533527     0.01300
F1084       F  0.29014502  0.05635088  0.16597764    -0.13000
F1085       F  0.21561429  0.03781697  0.20443859    -0.13600
C1086       C  0.27908447  0.09916321  0.18371172     0.16200
C1087       C  0.28080114  0.12021542  0.18119777     0.25600
C1088       C  0.26528036  0.13108358  0.17046117    -0.40700
C1089       C  0.24893672  0.12040758  0.16096089     0.32600
C1090       C  0.24740623  0.09943082  0.16321070     0.14300
F1091       F  0.29332386  0.08920490  0.19554252    -0.13000
F1092       F  0.23404245  0.13040034  0.15000723    -0.13600
F1093       F  0.29668996  0.13008795  0.19070886    -0.15800
F1094       F  0.23117935  0.08958533  0.15422248    -0.14400
F1095       F  0.22582891  0.07685587  0.19727440    -0.14400
F1096       F  0.27976686  0.01683057  0.17246275    -0.15800
C1097       C  0.34824379  0.31965697  0.19239076     0.14300
C1098       C  0.35909262  0.32037888  0.17326428     0.01200
C1099       C  0.35685474  0.30428256  0.15909138     0.16200
C1100       C  0.34348443  0.28805281  0.16367773     0.25600
C1101       C  0.33215776  0.28751454  0.18267924    -0.40700
C1102       C  0.33512364  0.30336225  0.19715573     0.32600
C1103       C  0.37204261  0.33832039  0.16786292     0.01300
F1104       F  0.36757320  0.30433272  0.14070223    -0.13000
F1105       F  0.32553041  0.30312937  0.21613989    -0.13600
C1106       C  0.38812220  0.34468514  0.18126395     0.16200
C1107       C  0.39943492  0.36233864  0.17674410     0.25600
C1108       C  0.39513013  0.37363747  0.15854593    -0.40700
C1109       C  0.37929882  0.36715046  0.14500376     0.32600
C1110       C  0.36774099  0.34973897  0.14969640     0.14300
F1111       F  0.39297925  0.33368186  0.19862321    -0.13000
F1112       F  0.37449106  0.37814928  0.12762543    -0.13600
F1113       F  0.41487905  0.36817309  0.18988531    -0.15800
F1114       F  0.35186214  0.34440982  0.13685329    -0.14400
F1115       F  0.34986863  0.33509542  0.20629010    -0.14400
F1116       F  0.34117873  0.27330777  0.14911700    -0.15800
C1117       C  0.96573953  0.07131841  0.01504166     0.14300
C1118       C  0.96449023  0.05325368  0.00360233     0.01200
C1119       C  0.94758506  0.05006759  0.99013639     0.16200
C1120       C  0.93224842  0.06488649  0.98788023     0.25600
C1121       C  0.93352802  0.08312323  0.99916754    -0.40700
C1122       C  0.95036205  0.08611863  0.01290825     0.32600
C1123       C  0.98115363  0.03797545  0.00517533     0.01300
F1124       F  0.94613129  0.03269579  0.97892617    -0.13000
F1125       F  0.95217859  0.10358109  0.02391571    -0.13600
C1126       C  0.97736600  0.01916242  0.01485194     0.16200
C1127       C  0.99306062  0.00455939  0.01582694     0.25600
C1128       C  0.01265933  0.00847270  0.00685790    -0.40700
C1129       C  0.01643202  0.02735662  0.99724657     0.32600
C1130       C  0.00082557  0.04203850  0.99653694     0.14300
F1131       F  0.95847882  0.01499859  0.02339456    -0.13000
F1132       F  0.03532867  0.03166148  0.98879105    -0.13600
F1133       F  0.98899237  0.98640428  0.02507535    -0.15800
F1134       F  0.00476469  0.06013204  0.98709822    -0.14400
F1135       F  0.98185775  0.07456624  0.02832186    -0.14400
F1136       F  0.91593934  0.06124559  0.97495394    -0.15800
C1137       C  0.07308448  0.93709251  0.07069077     0.14300
C1138       C  0.08333838  0.95130473  0.08341529     0.01200
C1139       C  0.08155246  0.97204969  0.07855558     0.16200
C1140       C  0.07040433  0.97838622  0.06090386     0.25600
C1141       C  0.06108618  0.96410898  0.04761938    -0.40700
C1142       C  0.06221164  0.94343370  0.05282662     0.32600
C1143       C  0.09728361  0.94456303  0.10063984     0.01300
F1144       F  0.09165515  0.98614344  0.09017428    -0.13000
F1145       F  0.05304817  0.92937995  0.04039519    -0.13600
C1146       C  0.11389585  0.93139493  0.09634761     0.16200
C1147       C  0.12850420  0.92675630  0.11186958     0.25600
C1148       C  0.12695812  0.93542368  0.13193105    -0.40700
C1149       C  0.10991537  0.94801267  0.13644843     0.32600
C1150       C  0.09515017  0.95242488  0.12099759     0.14300
F1151       F  0.11675693  0.92402013  0.07669952    -0.13000
F1152       F  0.10771131  0.95630646  0.15578184    -0.13600
F1153       F  0.14498447  0.91499501  0.10673157    -0.15800
F1154       F  0.07895543  0.96470362  0.12580528    -0.14400
F1155       F  0.07392373  0.91703425  0.07537650    -0.14400
F1156       F  0.06984440  0.99841737  0.05602371    -0.15800
C1157       C  0.12341728  0.95710615  0.91582573     0.14300
C1158       C  0.10372150  0.94791544  0.91747871     0.01200
C1159       C  0.09790969  0.93339277  0.90248566     0.16200
C1160       C  0.11142465  0.92838911  0.88604866     0.25600
C1161       C  0.13081334  0.93812648  0.88404794    -0.40700
C1162       C  0.13668091  0.95248366  0.89914459     0.32600
C1163       C  0.08936825  0.95374573  0.93474694     0.01300
F1164       F  0.07889028  0.92448739  0.90335316    -0.13000
F1165       F  0.15553043  0.96171137  0.89809614    -0.13600
C1166       C  0.08503132  0.97430559  0.93844135     0.16200
C1167       C  0.07315784  0.98008184  0.95579970     0.25600
C1168       C  0.06493697  0.96538557  0.96957723    -0.40700
C1169       C  0.06834801  0.94477691  0.96528854     0.32600
C1170       C  0.08060691  0.93900556  0.94816082     0.14300
F1171       F  0.09256047  0.98888272  0.92534830    -0.13000
F1172       F  0.05998032  0.93021392  0.97786699    -0.13600
F1173       F  0.07054147  0.00011303  0.95966707    -0.15800
F1174       F  0.08458930  0.91904400  0.94522436    -0.14400
F1175       F  0.12999736  0.97038669  0.93060804    -0.14400
F1176       F  0.10516754  0.91461404  0.87162544    -0.15800
loop_ 
_geom_bond_atom_site_label_1 
_geom_bond_atom_site_label_2 
_geom_bond_distance 
_geom_bond_site_symmetry_2 
_ccdc_geom_bond_type 
C1            C2   1.402       .  A
C1            C6   1.403       .  A
C1         C1141   1.480       .  S
C2            C3   1.404   1_554  A
C2            H7   1.083       .  S
C3            C4   1.405       .  A
C3         C1168   1.485       .  S
C4            C5   1.405   1_556  A
C4            H8   1.084       .  S
C5            C6   1.404       .  A
C5         C1128   1.481   1_565  S
C6            H9   1.084       .  S
N10          N11   1.323       .  A
N10          C14   1.348       .  A
N10         Cu18   2.084       .  S
N11          C12   1.341       .  A
N11         Cu17   2.066       .  S
C12          C13   1.382       .  A
C12          H15   1.083       .  S
C13          C14   1.387       .  A
C13        C1088   1.479       .  S
C14          H16   1.083       .  S
Cu17         N20   2.064       .  S
Cu18         N28   2.084       .  S
Cu19         N21   2.073       .  S
Cu19         N27   2.074       .  S
N20          N21   1.320       .  A
N20          C24   1.344       .  A
N21          C22   1.346       .  A
C22          C23   1.387       .  A
C22          H25   1.081       .  S
C23          C24   1.383       .  A
C23        C1061   1.478       .  S
C24          H26   1.081       .  S
N27          N28   1.321       .  A
N27          C31   1.343       .  A
N28          C29   1.347       .  A
C29          C30   1.391       .  A
C29          H32   1.081       .  S
C30          C31   1.388       .  A
C30        C1101   1.492       .  S
C31          H33   1.080       .  S
N34          N35   1.318       .  A
N34          C38   1.348       .  A
N34         Cu42   2.070       .  S
N35          C36   1.339       .  A
N35         Cu41   2.060       .  S
C36          C37   1.385   1_565  A
C36          H39   1.081   1_565  S
C37          C38   1.390   1_545  A
C37        C1081   1.485       .  S
C38          H40   1.081       .  S
Cu41         N44   2.059       .  S
Cu42         N52   2.071       .  S
Cu43         N45   2.094       .  S
Cu43         N51   2.096       .  S
N44          N45   1.321       .  A
N44          C48   1.342       .  A
N45          C46   1.349       .  A
C46          C47   1.391       .  A
C46          H49   1.081       .  S
C47          C48   1.381       .  A
C47        C1148   1.483       .  S
C48          H50   1.083       .  S
N51          N52   1.324       .  A
N51          C55   1.350       .  A
N52          C53   1.341       .  A
C53          C54   1.382       .  A
C53          H56   1.082       .  S
C54          C55   1.390       .  A
C54        C1041   1.485       .  S
C55          H57   1.081       .  S
N58          N59   1.319       .  A
N58          C62   1.346       .  A
N58         Cu66   2.080       .  S
N59          C60   1.340       .  A
N59         Cu65   2.050       .  S
C60          C61   1.383       .  A
C60          H63   1.082       .  S
C61          C62   1.392       .  A
C61        C1008   1.485       .  S
C62          H64   1.080       .  S
Cu65         N68   2.050       .  S
Cu66         N76   2.081       .  S
Cu67         N69   2.081       .  S
Cu67         N75   2.082       .  S
N68          N69   1.320       .  A
N68          C72   1.339       .  A
N69          C70   1.348       .  A
C70          C71   1.391       .  A
C70          H73   1.081       .  S
C71          C72   1.381       .  A
C71         C981   1.481       .  S
C72          H74   1.083       .  S
N75          N76   1.325       .  A
N75          C79   1.344       .  A
N76          C77   1.347       .  A
C77          C78   1.382       .  A
C77          H80   1.081       .  S
C78          C79   1.382       .  A
C78        C1028   1.475       .  S
C79          H81   1.082       .  S
N82          N83   1.320       .  A
N82          C86   1.343       .  A
N82         Cu90   2.063       .  S
N83          C84   1.345       .  A
N83         Cu89   2.075       .  S
C84          C85   1.388       .  A
C84          H87   1.082       .  S
C85          C86   1.385       .  A
C85        C1001   1.483       .  S
C86          H88   1.078       .  S
Cu89         N92   2.076       .  S
Cu90        N100   2.063       .  S
Cu91         N93   2.078       .  S
Cu91         N99   2.077       .  S
N92          N93   1.323       .  A
N92          C96   1.344       .  A
N93          C94   1.346       .  A
C94          C95   1.385       .  A
C94          H97   1.083       .  S
C95          C96   1.385       .  A
C95        C1161   1.481       .  S
C96          H98   1.082       .  S
N99         N100   1.321       .  A
N99         C103   1.347       .  A
N100        C101   1.342       .  A
C101        C102   1.385       .  A
C101        H104   1.080       .  S
C102        C103   1.389       .  A
C102        C968   1.484       .  S
C103        H105   1.082       .  S
C106        C107   1.404       .  A
C106        C111   1.402       .  A
C106       C1068   1.476       .  S
C107        C108   1.404       .  A
C107        H112   1.085       .  S
C108        C109   1.404       .  A
C108        C948   1.480       .  S
C109        C110   1.402       .  A
C109        H113   1.083       .  S
C110        C111   1.402       .  A
C110        C988   1.473       .  S
C111        H114   1.084       .  S
N115        N116   1.322       .  A
N115        C119   1.348       .  A
N115       Cu123   2.082       .  S
N116        C117   1.340       .  A
N116       Cu122   2.057       .  S
C117        C118   1.380       .  A
C117        H120   1.084       .  S
C118        C119   1.388       .  A
C118        C921   1.476       .  S
C119        H121   1.080       .  S
Cu122       N125   2.057       .  S
Cu123       N133   2.083       .  S
Cu124       N126   2.077       .  S
Cu124       N132   2.078       .  S
N125        N126   1.319       .  A
N125        C129   1.341       .  A
N126        C127   1.347       .  A
C127        C128   1.391       .  A
C127        H130   1.077       .  S
C128        C129   1.386       .  A
C128        C901   1.487       .  S
C129        H131   1.081       .  S
N132        N133   1.324       .  A
N132        C136   1.344       .  A
N133        C134   1.348       .  A
C134        C135   1.384       .  A
C134        H137   1.080       .  S
C135        C136   1.381       .  A
C135       C1108   1.475       .  S
C136        H138   1.081       .  S
N139        N140   1.321       .  A
N139        C143   1.347       .  A
N139       Cu147   2.073       .  S
N140        C141   1.342       .  A
N140       Cu146   2.064       .  S
C141        C142   1.382       .  A
C141        H144   1.084       .  S
C142        C143   1.385       .  A
C142        C928   1.475       .  S
C143        H145   1.079       .  S
Cu146       N149   2.063       .  S
Cu147       N157   2.075       .  S
Cu148       N150   2.088       .  S
Cu148       N156   2.089       .  S
N149        N150   1.321       .  A
N149        C153   1.342       .  A
N150        C151   1.348       .  A
C151        C152   1.390       .  A
C151        H154   1.081       .  S
C152        C153   1.382       .  A
C152        C888   1.481       .  S
C153        H155   1.084       .  S
N156        N157   1.323       .  A
N156        C160   1.347       .  A
N157        C158   1.344       .  A
C158        C159   1.386       .  A
C158        H161   1.080       .  S
C159        C160   1.389       .  A
C159       C1048   1.488       .  S
C160        H162   1.081       .  S
C163        C164   1.400       .  A
C163        C168   1.400       .  A
C163        C861   1.471       .  S
C164        C165   1.401       .  A
C164        H169   1.085       .  S
C165        C166   1.403       .  A
C165        C908   1.481       .  S
C166        C167   1.407       .  A
C166        H170   1.084       .  S
C167        C168   1.406       .  A
C167        C841   1.485       .  S
C168        H171   1.083       .  S
N172        N173   1.319       .  A
N172        C176   1.348       .  A
N172       Cu180   2.072       .  S
N173        C174   1.339       .  A
N173       Cu179   2.060       .  S
C174        C175   1.384       .  A
C174        H177   1.082       .  S
C175        C176   1.388       .  A
C175        C821   1.480       .  S
C176        H178   1.083       .  S
Cu179       N182   2.060       .  S
Cu180       N190   2.074       .  S
Cu181       N183   2.080       .  S
Cu181       N189   2.081       .  S
N182        N183   1.321       .  A
N182        C186   1.341       .  A
N183        C184   1.347       .  A
C184        C185   1.388       .  A
C184        H187   1.082       .  S
C185        C186   1.382       .  A
C185        C868   1.480       .  S
C186        H188   1.082       .  S
N189        N190   1.324       .  A
N189        C193   1.348       .  A
N190        C191   1.341       .  A
C191        C192   1.381       .  A
C191        H194   1.082       .  S
C192        C193   1.386       .  A
C192       C1021   1.478       .  S
C193        H195   1.081       .  S
N196        N197   1.319       .  A
N196        C200   1.347       .  A
N196       Cu204   2.080       .  S
N197        C198   1.341       .  A
N197       Cu203   2.055       .  S
C198        C199   1.384       .  A
C198        H201   1.079       .  S
C199        C200   1.391       .  A
C199        C828   1.484       .  S
C200        H202   1.081       .  S
Cu203       N206   2.055       .  S
Cu204       N214   2.080       .  S
Cu205       N207   2.076       .  S
Cu205       N213   2.078       .  S
N206        N207   1.318       .  A
N206        C210   1.338       .  A
N207        C208   1.348       .  A
C208        C209   1.394       .  A
C208        H211   1.079       .  S
C209        C210   1.386       .  A
C209        C808   1.492       .  S
C210        H212   1.080       .  S
N213        N214   1.325       .  A
N213        C217   1.344       .  A
N214        C215   1.346       .  A
C215        C216   1.382       .  A
C215        H218   1.082       .  S
C216        C217   1.382       .  A
C216        C961   1.474       .  S
C217        H219   1.082       .  S
C220        C221   1.404       .  A
C220        C225   1.400       .  A
C220        C781   1.475       .  S
C221        C222   1.406       .  A
C221        H226   1.084       .  S
C222        C223   1.406       .  A
C222        C881   1.488       .  S
C223        C224   1.403       .  A
C223        H227   1.083       .  S
C224        C225   1.402       .  A
C224        C801   1.477       .  S
C225        H228   1.085       .  S
C229        C230   1.400       .  A
C229        C234   1.398       .  A
C229        C848   1.469       .  S
C230        C231   1.405       .  A
C230        H235   1.084       .  S
C231        C232   1.404       .  A
C231        C761   1.480       .  S
C232        C233   1.402       .  A
C232        H236   1.083       .  S
C233        C234   1.401       .  A
C233        C741   1.480       .  S
C234        H237   1.084       .  S
N238        N239   1.321       .  A
N238        C242   1.343       .  A
N238       Cu246   2.070       .  S
N239        C240   1.345       .  A
N239       Cu245   2.067       .  S
C240        C241   1.384       .  A
C240        H243   1.083       .  S
C241        C242   1.385       .  A
C241        C708   1.478       .  S
C242        H244   1.080       .  S
Cu245       N248   2.069       .  S
Cu246       N256   2.071       .  S
Cu247       N249   2.089       .  S
Cu247       N255   2.090       .  S
N248        N249   1.322       .  A
N248        C252   1.342       .  A
N249        C250   1.349       .  A
C250        C251   1.389       .  A
C250        H253   1.082       .  S
C251        C252   1.383       .  A
C251        C688   1.483       .  S
C252        H254   1.082       .  S
N255        N256   1.322       .  A
N255        C259   1.346       .  A
N256        C257   1.344       .  A
C257        C258   1.386       .  A
C257        H260   1.081       .  S
C258        C259   1.390       .  A
C258        C728   1.488       .  S
C259        H261   1.081       .  S
N262        N263   1.321       .  A
N262        C266   1.345       .  A
N262       Cu270   2.066       .  S
N263        C264   1.342       .  A
N263       Cu269   2.061       .  S
C264        C265   1.383       .  A
C264        H267   1.082       .  S
C265        C266   1.384       .  A
C265        C701   1.476       .  S
C266        H268   1.080       .  S
Cu269       N272   2.060       .  S
Cu270       N280   2.066       .  S
Cu271       N273   2.061       .  S
Cu271       N279   2.062       .  S
N272        N273   1.321       .  A
N272        C276   1.341       .  A
N273        C274   1.344       .  A
C274        C275   1.382       .  A
C274        H277   1.083       .  S
C275        C276   1.381       .  A
C275        C748   1.470       .  S
C276        H278   1.082       .  S
N279        N280   1.322       .  A
N279        C283   1.342       .  A
N280        C281   1.343       .  A
C281        C282   1.384       .  A
C281        H284   1.082       .  S
C282        C283   1.383       .  A
C282        C668   1.475       .  S
C283        H285   1.081       .  S
N286        N287   1.320       .  A
N286        C290   1.347       .  A
N286       Cu294   2.080       .  S
N287        C288   1.341       .  A
N287       Cu293   2.061       .  S
C288        C289   1.385       .  A
C288        H291   1.080       .  S
C289        C290   1.389       .  A
C289        C621   1.485       .  S
C290        H292   1.083       .  S
Cu293       N296   2.062       .  S
Cu294       N304   2.081       .  S
Cu295       N297   2.080       .  S
Cu295       N303   2.082       .  S
N296        N297   1.321       .  A
N296        C300   1.342       .  A
N297        C298   1.348       .  A
C298        C299   1.388       .  A
C298        H301   1.079       .  S
C299        C300   1.382       .  A
C299        C601   1.478       .  S
C300        H302   1.081       .  S
N303        N304   1.324       .  A
N303        C307   1.346       .  A
N304        C305   1.346       .  A
C305        C306   1.385       .  A
C305        H308   1.082       .  S
C306        C307   1.385       .  A
C306        C641   1.483       .  S
C307        H309   1.081       .  S
N310        N311   1.321       .  A
N310        C314   1.347       .  A
N310       Cu318   2.081       .  S
N311        C312   1.341       .  A
N311       Cu317   2.063       .  S
C312        C313   1.383       .  A
C312        H315   1.082       .  S
C313        C314   1.389       .  A
C313        C628   1.480       .  S
C314        H316   1.082       .  S
Cu317       N320   2.064       .  S
Cu318       N328   2.081       .  S
Cu319       N321   2.067       .  S
Cu319       N327   2.068       .  S
N320        N321   1.321       .  A
N320        C324   1.343       .  A
N321        C322   1.345       .  A
C322        C323   1.384       .  A
C322        H325   1.081       .  S
C323        C324   1.382       .  A
C323        C768   1.474       .  S
C324        H326   1.083       .  S
N327        N328   1.322       .  A
N327        C331   1.343       .  A
N328        C329   1.346       .  A
C329        C330   1.387       .  A
C329        H332   1.082       .  S
C330        C331   1.384       .  A
C330        C581   1.482       .  S
C331        H333   1.081       .  S
C334        C335   1.401       .  A
C334        C339   1.402       .  A
C334        C608   1.471       .  S
C335        C336   1.401       .  A
C335        H340   1.085       .  S
C336        C337   1.405       .  A
C336        C681   1.483       .  S
C337        C338   1.406       .  A
C337        H341   1.083       .  S
C338        C339   1.404       .  A
C338        C788   1.479       .  S
C339        H342   1.084       .  S
C343        C344   1.401   1_554  A
C343        C348   1.401       .  A
C343        C548   1.472       .  S
C344        C345   1.404       .  A
C344        H349   1.085       .  S
C345        C346   1.408       .  A
C345        C561   1.486       .  S
C346        C347   1.407       .  A
C346        H350   1.084       .  S
C347        C348   1.403   1_556  A
C347       C1121   1.485       .  S
C348        H351   1.083       .  S
N352        N353   1.319       .  A
N352        C356   1.349       .  A
N352       Cu360   2.084       .  S
N353        C354   1.338       .  A
N353       Cu359   2.048       .  S
C354        C355   1.380       .  A
C354        H357   1.082       .  S
C355        C356   1.391       .  A
C355        C521   1.477       .  S
C356        H358   1.082       .  S
Cu359       N362   2.050       .  S
Cu360       N370   2.087       .  S
Cu361       N363   2.082       .  S
Cu361       N369   2.085       .  S
N362        N363   1.320       .  A
N362        C366   1.339       .  A
N363        C364   1.350       .  A
C364        C365   1.388       .  A
C364        H367   1.082       .  S
C365        C366   1.379       .  A
C365        C541   1.475       .  S
C366        H368   1.082       .  S
N369        N370   1.325       .  A
N369        C373   1.346       .  A
N370        C371   1.345       .  A
C371        C372   1.387       .  A
C371        H374   1.082       .  S
C372        C373   1.386       .  A
C372        C721   1.487       .  S
C373        H375   1.081       .  S
N376        N377   1.320       .  A
N376        C380   1.345       .  A
N376       Cu384   2.067       .  S
N377        C378   1.341       .  A
N377       Cu383   2.062       .  S
C378        C379   1.385       .  A
C378        H381   1.079       .  S
C379        C380   1.387       .  A
C379        C528   1.482       .  S
C380        H382   1.082       .  S
Cu383       N386   2.062       .  S
Cu384       N394   2.068       .  S
Cu385       N387   2.070       .  S
Cu385       N393   2.070       .  S
N386        N387   1.322       .  A
N386        C390   1.342       .  A
N387        C388   1.346       .  A
C388        C389   1.382       .  A
C388        H391   1.083       .  S
C389        C390   1.379       .  A
C389        C508   1.467       .  S
C390        H392   1.080       .  S
N393        N394   1.323       .  A
N393        C397   1.343       .  A
N394        C395   1.343       .  A
C395        C396   1.382       .  A
C395        H398   1.082       .  S
C396        C397   1.382       .  A
C396        C661   1.473       .  S
C397        H399   1.083       .  S
N400        N401   1.320       .  A
N400        C404   1.348       .  A
N400       Cu408   2.075       .  S
N401        C402   1.343       .  A
N401       Cu407   2.068       .  S
C402        C403   1.384       .  A
C402        H405   1.084       .  S
C403        C404   1.387       .  A
C403        C488   1.481       .  S
C404        H406   1.080       .  S
Cu407       N410   2.068       .  S
Cu408       N418   2.076       .  S
Cu409       N411   2.094       .  S
Cu409       N417   2.095       .  S
N410        N411   1.323       .  A
N410        C414   1.341       .  A
N411        C412   1.351       .  A
C412        C413   1.390       .  A
C412        H415   1.081       .  S
C413        C414   1.381       .  A
C413        C568   1.484       .  S
C414        H416   1.084       .  S
N417        N418   1.324       .  A
N417        C421   1.349       .  A
N418        C419   1.343       .  A
C419        C420   1.384       .  A
C419        H422   1.081       .  S
C420        C421   1.390       .  A
C420        C648   1.488       .  S
C421        H423   1.080       .  S
N424        N425   1.321       .  A
N424        C428   1.347       .  A
N424       Cu432   2.082       .  S
N425        C426   1.346       .  A
N425       Cu431   2.076       .  S
C426        C427   1.385       .  A
C426        H429   1.083       .  S
C427        C428   1.387       .  A
C427        C481   1.483       .  S
C428        H430   1.079       .  S
Cu431       N434   2.076       .  S
Cu432       N442   2.082       .  S
Cu433       N435   2.079       .  S
Cu433       N441   2.079       .  S
N434        N435   1.322       .  A
N434        C438   1.343       .  A
N435        C436   1.348       .  A
C436        C437   1.387       .  A
C436        H439   1.082       .  S
C437        C438   1.385       .  A
C437        C461   1.484       .  S
C438        H440   1.082       .  S
N441        N442   1.322       .  A
N441        C445   1.345       .  A
N442        C443   1.345       .  A
C443        C444   1.389       .  A
C443        H446   1.080       .  S
C444        C445   1.389       .  A
C444        C588   1.491       .  S
C445        H447   1.080       .  S
C448        C449   1.408       .  A
C448        C453   1.407       .  A
C448        C941   1.487   1_565  S
C449        C450   1.405       .  A
C449        H454   1.083       .  S
C450        C451   1.401       .  A
C450        C468   1.488       .  S
C451        C452   1.402       .  A
C451        H455   1.083       .  S
C452        C453   1.403       .  A
C452        C501   1.477       .  S
C453        H456   1.084       .  S
C457        C458   1.405   1_655  A
C457        C462   1.395       .  A
C457        F475   1.358       .  S
C458        C459   1.407       .  A
C458        C463   1.484       .  S
C459        C460   1.405       .  A
C459        F464   1.358       .  S
C460        C461   1.410   1_455  A
C460        F476   1.357       .  S
C461        C462   1.407       .  A
C462        F465   1.357       .  S
C463        C466   1.406       .  A
C463        C470   1.405       .  A
C466        C467   1.397       .  A
C466        F471   1.358       .  S
C467        C468   1.408       .  A
C467        F473   1.358       .  S
C468        C469   1.410       .  A
C469        C470   1.402       .  A
C469        F472   1.358       .  S
C470        F474   1.358       .  S
C477        C478   1.407       .  A
C477        C482   1.402       .  A
C477        F495   1.358       .  S
C478        C479   1.408       .  A
C478        C483   1.489       .  S
C479        C480   1.400   1_545  A
C479        F484   1.358       .  S
C480        C481   1.406       .  A
C480        F496   1.358       .  S
C481        C482   1.408   1_565  A
C482        F485   1.358       .  S
C483        C486   1.407       .  A
C483        C490   1.409       .  A
C486        C487   1.399       .  A
C486        F491   1.358       .  S
C487        C488   1.406       .  A
C487        F493   1.358       .  S
C488        C489   1.406       .  A
C489        C490   1.402       .  A
C489        F492   1.358       .  S
C490        F494   1.358       .  S
C497        C498   1.405       .  A
C497        C502   1.397       .  A
C497        F515   1.358       .  S
C498        C499   1.407       .  A
C498        C503   1.480   1_455  S
C499        C500   1.400       .  A
C499        F504   1.358   1_455  S
C500        C501   1.405       .  A
C500        F516   1.358       .  S
C501        C502   1.405       .  A
C502        F505   1.358       .  S
C503        C506   1.408       .  A
C503        C510   1.406       .  A
C506        C507   1.397       .  A
C506        F511   1.358       .  S
C507        C508   1.401       .  A
C507        F513   1.358       .  S
C508        C509   1.403       .  A
C509        C510   1.399       .  A
C509        F512   1.358       .  S
C510        F514   1.357       .  S
C517        C518   1.403       .  A
C517        C522   1.397       .  A
C517        F535   1.358       .  S
C518        C519   1.405       .  A
C518        C523   1.477       .  S
C519        C520   1.399       .  A
C519        F524   1.358       .  S
C520        C521   1.407       .  A
C520        F536   1.357       .  S
C521        C522   1.408       .  A
C522        F525   1.358       .  S
C523        C526   1.403       .  A
C523        C530   1.403       .  A
C526        C527   1.395       .  A
C526        F531   1.358       .  S
C527        C528   1.409   1_545  A
C527        F533   1.357       .  S
C528        C529   1.410       .  A
C529        C530   1.400   1_565  A
C529        F532   1.357       .  S
C530        F534   1.358       .  S
C537        C538   1.405       .  A
C537        C542   1.396       .  A
C537        F555   1.358       .  S
C538        C539   1.407       .  A
C538        C543   1.481       .  S
C539        C540   1.401       .  A
C539        F544   1.358       .  S
C540        C541   1.404       .  A
C540        F556   1.357       .  S
C541        C542   1.406       .  A
C542        F545   1.358       .  S
C543        C546   1.407       .  A
C543        C550   1.406       .  A
C546        C547   1.396       .  A
C546        F551   1.358       .  S
C547        C548   1.402       .  A
C547        F553   1.358       .  S
C548        C549   1.404       .  A
C549        C550   1.400       .  A
C549        F552   1.358       .  S
C550        F554   1.358       .  S
C557        C558   1.405       .  A
C557        C562   1.402       .  A
C557        F575   1.358       .  S
C558        C559   1.406       .  A
C558        C563   1.484       .  S
C559        C560   1.398       .  A
C559        F564   1.358       .  S
C560        C561   1.407       .  A
C560        F576   1.358       .  S
C561        C562   1.409       .  A
C562        F565   1.358       .  S
C563        C566   1.403       .  A
C563        C570   1.408       .  A
C566        C567   1.395       .  A
C566        F571   1.358       .  S
C567        C568   1.408       .  A
C567        F573   1.358       .  S
C568        C569   1.408       .  A
C569        C570   1.405       .  A
C569        F572   1.358       .  S
C570        F574   1.358       .  S
C577        C578   1.405       .  A
C577        C582   1.399       .  A
C577        F595   1.358       .  S
C578        C579   1.405       .  A
C578        C583   1.482       .  S
C579        C580   1.399       .  A
C579        F584   1.358       .  S
C580        C581   1.408       .  A
C580        F596   1.357       .  S
C581        C582   1.409       .  A
C582        F585   1.358       .  S
C583        C586   1.403       .  A
C583        C590   1.404       .  A
C586        C587   1.399       .  A
C586        F591   1.358       .  S
C587        C588   1.411       .  A
C587        F593   1.357       .  S
C588        C589   1.412       .  A
C589        C590   1.400       .  A
C589        F592   1.357       .  S
C590        F594   1.358       .  S
C597        C598   1.406       .  A
C597        C602   1.399       .  A
C597        F615   1.358       .  S
C598        C599   1.404       .  A
C598        C603   1.480       .  S
C599        C600   1.399       .  A
C599        F604   1.358       .  S
C600        C601   1.408       .  A
C600        F616   1.358       .  S
C601        C602   1.406       .  A
C602        F605   1.358       .  S
C603        C606   1.407       .  A
C603        C610   1.406       .  A
C606        C607   1.400       .  A
C606        F611   1.358       .  S
C607        C608   1.403       .  A
C607        F613   1.357       .  S
C608        C609   1.403       .  A
C609        C610   1.397       .  A
C609        F612   1.358       .  S
C610        F614   1.358       .  S
C617        C618   1.402       .  A
C617        C622   1.402       .  A
C617        F635   1.357       .  S
C618        C619   1.402       .  A
C618        C623   1.476       .  S
C619        C620   1.395       .  A
C619        F624   1.359       .  S
C620        C621   1.410       .  A
C620        F636   1.357       .  S
C621        C622   1.410       .  A
C622        F625   1.357       .  S
C623        C626   1.403       .  A
C623        C630   1.403       .  A
C626        C627   1.399       .  A
C626        F631   1.358       .  S
C627        C628   1.409       .  A
C627        F633   1.357       .  S
C628        C629   1.408       .  A
C629        C630   1.398       .  A
C629        F632   1.358       .  S
C630        F634   1.358       .  S
C637        C638   1.403       .  A
C637        C642   1.401       .  A
C637        F655   1.358       .  S
C638        C639   1.404       .  A
C638        C643   1.478       .  S
C639        C640   1.400       .  A
C639        F644   1.358       .  S
C640        C641   1.408       .  A
C640        F656   1.358       .  S
C641        C642   1.409       .  A
C642        F645   1.357       .  S
C643        C646   1.401       .  A
C643        C650   1.403       .  A
C646        C647   1.399       .  A
C646        F651   1.358       .  S
C647        C648   1.412       .  A
C647        F653   1.357       .  S
C648        C649   1.410       .  A
C649        C650   1.402       .  A
C649        F652   1.357       .  S
C650        F654   1.358       .  S
C657        C658   1.401       .  A
C657        C662   1.396       .  A
C657        F675   1.358       .  S
C658        C659   1.401       .  A
C658        C663   1.467       .  S
C659        C660   1.397       .  A
C659        F664   1.358       .  S
C660        C661   1.407       .  A
C660        F676   1.358       .  S
C661        C662   1.407       .  A
C662        F665   1.358       .  S
C663        C666   1.401       .  A
C663        C670   1.400       .  A
C666        C667   1.397       .  A
C666        F671   1.358       .  S
C667        C668   1.408       .  A
C667        F673   1.358       .  S
C668        C669   1.408       .  A
C669        C670   1.395       .  A
C669        F672   1.357       .  S
C670        F674   1.358       .  S
C677        C678   1.409       .  A
C677        C682   1.403       .  A
C677        F695   1.358       .  S
C678        C679   1.410       .  A
C678        C683   1.492       .  S
C679        C680   1.396       .  A
C679        F684   1.358       .  S
C680        C681   1.404       .  A
C680        F696   1.358       .  S
C681        C682   1.407       .  A
C682        F685   1.358       .  S
C683        C686   1.407       .  A
C683        C690   1.410       .  A
C686        C687   1.398       .  A
C686        F691   1.358       .  S
C687        C688   1.406       .  A
C687        F693   1.358       .  S
C688        C689   1.407       .  A
C689        C690   1.403       .  A
C689        F692   1.357       .  S
C690        F694   1.357       .  S
C697        C698   1.405       .  A
C697        C702   1.398       .  A
C697        F715   1.358       .  S
C698        C699   1.403       .  A
C698        C703   1.475       .  S
C699        C700   1.396       .  A
C699        F704   1.358       .  S
C700        C701   1.408       .  A
C700        F716   1.358       .  S
C701        C702   1.406       .  A
C702        F705   1.358       .  S
C703        C706   1.404       .  A
C703        C710   1.402       .  A
C706        C707   1.401       .  A
C706        F711   1.358       .  S
C707        C708   1.408       .  A
C707        F713   1.358       .  S
C708        C709   1.406       .  A
C709        C710   1.394       .  A
C709        F712   1.357       .  S
C710        F714   1.358       .  S
C717        C718   1.405       .  A
C717        C722   1.401       .  A
C717        F735   1.358       .  S
C718        C719   1.403       .  A
C718        C723   1.482       .  S
C719        C720   1.399       .  A
C719        F724   1.358       .  S
C720        C721   1.410       .  A
C720        F736   1.357       .  S
C721        C722   1.410       .  A
C722        F725   1.357       .  S
C723        C726   1.404       .  A
C723        C730   1.403       .  A
C726        C727   1.401       .  A
C726        F731   1.358       .  S
C727        C728   1.411       .  A
C727        F733   1.357       .  S
C728        C729   1.410       .  A
C729        C730   1.399       .  A
C729        F732   1.357       .  S
C730        F734   1.358       .  S
C737        C738   1.405       .  A
C737        C742   1.393       .  A
C737        F755   1.358       .  S
C738        C739   1.405       .  A
C738        C743   1.478   1_556  S
C739        C740   1.398       .  A
C739        F744   1.358       .  S
C740        C741   1.408       .  A
C740        F756   1.358       .  S
C741        C742   1.407       .  A
C742        F745   1.358       .  S
C743        C746   1.406       .  A
C743        C750   1.406       .  A
C746        C747   1.393       .  A
C746        F751   1.358       .  S
C747        C748   1.403       .  A
C747        F753   1.358       .  S
C748        C749   1.406       .  A
C749        C750   1.398       .  A
C749        F752   1.358       .  S
C750        F754   1.358       .  S
C757        C758   1.402       .  A
C757        C762   1.396       .  A
C757        F775   1.358       .  S
C758        C759   1.402       .  A
C758        C763   1.471       .  S
C759        C760   1.398       .  A
C759        F764   1.358       .  S
C760        C761   1.408       .  A
C760        F776   1.358       .  S
C761        C762   1.409       .  A
C762        F765   1.358       .  S
C763        C766   1.402       .  A
C763        C770   1.403       .  A
C766        C767   1.397       .  A
C766        F771   1.358       .  S
C767        C768   1.407       .  A
C767        F773   1.358       .  S
C768        C769   1.406       .  A
C769        C770   1.398       .  A
C769        F772   1.358       .  S
C770        F774   1.358       .  S
C777        C778   1.405       .  A
C777        C782   1.400       .  A
C777        F795   1.358       .  S
C778        C779   1.405       .  A
C778        C783   1.478       .  S
C779        C780   1.399       .  A
C779        F784   1.357       .  S
C780        C781   1.403       .  A
C780        F796   1.357       .  S
C781        C782   1.406       .  A
C782        F785   1.358       .  S
C783        C786   1.404       .  A
C783        C790   1.405       .  A
C786        C787   1.396       .  A
C786        F791   1.358       .  S
C787        C788   1.405       .  A
C787        F793   1.358       .  S
C788        C789   1.407       .  A
C789        C790   1.402       .  A
C789        F792   1.358       .  S
C790        F794   1.358       .  S
C797        C798   1.406       .  A
C797        C802   1.396       .  A
C797        F815   1.358       .  S
C798        C799   1.407       .  A
C798        C803   1.481       .  S
C799        C800   1.400       .  A
C799        F804   1.358       .  S
C800        C801   1.405       .  A
C800        F816   1.358       .  S
C801        C802   1.404       .  A
C802        F805   1.358       .  S
C803        C806   1.402       .  A
C803        C810   1.404       .  A
C806        C807   1.394       .  A
C806        F811   1.358       .  S
C807        C808   1.412       .  A
C807        F813   1.356       .  S
C808        C809   1.413       .  A
C809        C810   1.402       .  A
C809        F812   1.356       .  S
C810        F814   1.358       .  S
C817        C818   1.404       .  A
C817        C822   1.392       .  A
C817        F835   1.358       .  S
C818        C819   1.407       .  A
C818        C823   1.482       .  S
C819        C820   1.405       .  A
C819        F824   1.358       .  S
C820        C821   1.409       .  A
C820        F836   1.357       .  S
C821        C822   1.406       .  A
C822        F825   1.358       .  S
C823        C826   1.404       .  A
C823        C830   1.406       .  A
C826        C827   1.400       .  A
C826        F831   1.358       .  S
C827        C828   1.410       .  A
C827        F833   1.358       .  S
C828        C829   1.408       .  A
C829        C830   1.397       .  A
C829        F832   1.357       .  S
C830        F834   1.358       .  S
C837        C838   1.402       .  A
C837        C842   1.398       .  A
C837        F855   1.358       .  S
C838        C839   1.402       .  A
C838        C843   1.473       .  S
C839        C840   1.397       .  A
C839        F844   1.358       .  S
C840        C841   1.410       .  A
C840        F856   1.358       .  S
C841        C842   1.410       .  A
C842        F845   1.358       .  S
C843        C846   1.405       .  A
C843        C850   1.403       .  A
C846        C847   1.399       .  A
C846        F851   1.358       .  S
C847        C848   1.403       .  A
C847        F853   1.358       .  S
C848        C849   1.404       .  A
C849        C850   1.396       .  A
C849        F852   1.358       .  S
C850        F854   1.358       .  S
C857        C858   1.407       .  A
C857        C862   1.401       .  A
C857        F875   1.358       .  S
C858        C859   1.407       .  A
C858        C863   1.480       .  S
C859        C860   1.395       .  A
C859        F864   1.358       .  S
C860        C861   1.401       .  A
C860        F876   1.358       .  S
C861        C862   1.404       .  A
C862        F865   1.358       .  S
C863        C866   1.406       .  A
C863        C870   1.404       .  A
C866        C867   1.399       .  A
C866        F871   1.358       .  S
C867        C868   1.407       .  A
C867        F873   1.357       .  S
C868        C869   1.409       .  A
C869        C870   1.397       .  A
C869        F872   1.358       .  S
C870        F874   1.358       .  S
C877        C878   1.405       .  A
C877        C882   1.399       .  A
C877        F895   1.358       .  S
C878        C879   1.403       .  A
C878        C883   1.480       .  S
C879        C880   1.400       .  A
C879        F884   1.358       .  S
C880        C881   1.410       .  A
C880        F896   1.358       .  S
C881        C882   1.410       .  A
C882        F885   1.358       .  S
C883        C886   1.405       .  A
C883        C890   1.404       .  A
C886        C887   1.398       .  A
C886        F891   1.358       .  S
C887        C888   1.407       .  A
C887        F893   1.357       .  S
C888        C889   1.409       .  A
C889        C890   1.401       .  A
C889        F892   1.358       .  S
C890        F894   1.358       .  S
C897        C898   1.401       .  A
C897        C902   1.397       .  A
C897        F915   1.358       .  S
C898        C899   1.403       .  A
C898        C903   1.477   1_554  S
C899        C900   1.399       .  A
C899        F904   1.358   1_554  S
C900        C901   1.410       .  A
C900        F916   1.357       .  S
C901        C902   1.412       .  A
C902        F905   1.357       .  S
C903        C906   1.404       .  A
C903        C910   1.404       .  A
C906        C907   1.398       .  A
C906        F911   1.358       .  S
C907        C908   1.407       .  A
C907        F913   1.358       .  S
C908        C909   1.408       .  A
C909        C910   1.399       .  A
C909        F912   1.358       .  S
C910        F914   1.358       .  S
C917        C918   1.401       .  A
C917        C922   1.396       .  A
C917        F935   1.358       .  S
C918        C919   1.404       .  A
C918        C923   1.473       .  S
C919        C920   1.401       .  A
C919        F924   1.358       .  S
C920        C921   1.407       .  A
C920        F936   1.358       .  S
C921        C922   1.407       .  A
C922        F925   1.358       .  S
C923        C926   1.404       .  A
C923        C930   1.401       .  A
C926        C927   1.400       .  A
C926        F931   1.358       .  S
C927        C928   1.406       .  A
C927        F933   1.358       .  S
C928        C929   1.407       .  A
C929        C930   1.397       .  A
C929        F932   1.358       .  S
C930        F934   1.358       .  S
C937        C938   1.403       .  A
C937        C942   1.400   1_545  A
C937        F955   1.358       .  S
C938        C939   1.403       .  A
C938        C943   1.478       .  S
C939        C940   1.400       .  A
C939        F944   1.358       .  S
C940        C941   1.409       .  A
C940        F956   1.358       .  S
C941        C942   1.409   1_545  A
C942        F945   1.358       .  S
C943        C946   1.404       .  A
C943        C950   1.404       .  A
C946        C947   1.402       .  A
C946        F951   1.358       .  S
C947        C948   1.408       .  A
C947        F953   1.358       .  S
C948        C949   1.405       .  A
C949        C950   1.398       .  A
C949        F952   1.358       .  S
C950        F954   1.358       .  S
C957        C958   1.404       .  A
C957        C962   1.398       .  A
C957        F975   1.358       .  S
C958        C959   1.404       .  A
C958        C963   1.475       .  S
C959        C960   1.399       .  A
C959        F964   1.358       .  S
C960        C961   1.406       .  A
C960        F976   1.358       .  S
C961        C962   1.405       .  A
C962        F965   1.358       .  S
C963        C966   1.401       .  A
C963        C970   1.403       .  A
C966        C967   1.395       .  A
C966        F971   1.358       .  S
C967        C968   1.410       .  A
C967        F973   1.357       .  S
C968        C969   1.411       .  A
C969        C970   1.402       .  A
C969        F972   1.357       .  S
C970        F974   1.358       .  S
C977        C978   1.404       .  A
C977        C982   1.397       .  A
C977        F995   1.358       .  S
C978        C979   1.406       .  A
C978        C983   1.481       .  S
C979        C980   1.399       .  A
C979        F984   1.358       .  S
C980        C981   1.407       .  A
C980        F996   1.357       .  S
C981        C982   1.410       .  A
C982        F985   1.358       .  S
C983        C986   1.407       .  A
C983        C990   1.407       .  A
C986        C987   1.399       .  A
C986        F991   1.358       .  S
C987        C988   1.403       .  A
C987        F993   1.358       .  S
C988        C989   1.404       .  A
C989        C990   1.399       .  A
C989        F992   1.358       .  S
C990        F994   1.358       .  S
C997        C998   1.404       .  A
C997       C1002   1.399   1_545  A
C997       F1015   1.358       .  S
C998        C999   1.404       .  A
C998       C1003   1.480       .  S
C999       C1000   1.397       .  A
C999       F1004   1.358       .  S
C1000      C1001   1.408   1_545  A
C1000      F1016   1.357       .  S
C1001      C1002   1.410       .  A
C1002      F1005   1.357       .  S
C1003      C1006   1.403       .  A
C1003      C1010   1.404       .  A
C1006      C1007   1.398       .  A
C1006      F1011   1.358       .  S
C1007      C1008   1.412       .  A
C1007      F1013   1.357       .  S
C1008      C1009   1.409       .  A
C1009      C1010   1.398       .  A
C1009      F1012   1.357       .  S
C1010      F1014   1.358       .  S
C1017      C1018   1.407       .  A
C1017      C1022   1.401       .  A
C1017      F1035   1.358       .  S
C1018      C1019   1.405       .  A
C1018      C1023   1.482       .  S
C1019      C1020   1.396       .  A
C1019      F1024   1.358       .  S
C1020      C1021   1.406       .  A
C1020      F1036   1.358       .  S
C1021      C1022   1.407       .  A
C1022      F1025   1.357       .  S
C1023      C1026   1.407       .  A
C1023      C1030   1.406       .  A
C1026      C1027   1.397       .  A
C1026      F1031   1.358       .  S
C1027      C1028   1.404       .  A
C1027      F1033   1.358       .  S
C1028      C1029   1.405       .  A
C1029      C1030   1.401       .  A
C1029      F1032   1.358       .  S
C1030      F1034   1.358       .  S
C1037      C1038   1.406       .  A
C1037      C1042   1.402       .  A
C1037      F1055   1.358       .  S
C1038      C1039   1.404       .  A
C1038      C1043   1.483       .  S
C1039      C1040   1.398       .  A
C1039      F1044   1.358       .  S
C1040      C1041   1.409       .  A
C1040      F1056   1.358       .  S
C1041      C1042   1.408       .  A
C1042      F1045   1.357       .  S
C1043      C1046   1.404       .  A
C1043      C1050   1.405       .  A
C1046      C1047   1.399       .  A
C1046      F1051   1.358       .  S
C1047      C1048   1.411       .  A
C1047      F1053   1.357       .  S
C1048      C1049   1.410       .  A
C1049      C1050   1.401       .  A
C1049      F1052   1.357       .  S
C1050      F1054   1.358       .  S
C1057      C1058   1.403       .  A
C1057      C1062   1.398       .  A
C1057      F1075   1.358       .  S
C1058      C1059   1.405       .  A
C1058      C1063   1.478       .  S
C1059      C1060   1.401       .  A
C1059      F1064   1.358       .  S
C1060      C1061   1.406       .  A
C1060      F1076   1.358       .  S
C1061      C1062   1.408       .  A
C1062      F1065   1.357       .  S
C1063      C1066   1.404       .  A
C1063      C1070   1.406       .  A
C1066      C1067   1.401       .  A
C1066      F1071   1.358       .  S
C1067      C1068   1.406       .  A
C1067      F1073   1.358       .  S
C1068      C1069   1.403       .  A
C1069      C1070   1.398       .  A
C1069      F1072   1.358       .  S
C1070      F1074   1.358       .  S
C1077      C1078   1.404       .  A
C1077      C1082   1.393       .  A
C1077      F1095   1.358       .  S
C1078      C1079   1.405       .  A
C1078      C1083   1.482       .  S
C1079      C1080   1.404       .  A
C1079      F1084   1.358       .  S
C1080      C1081   1.411       .  A
C1080      F1096   1.357       .  S
C1081      C1082   1.408       .  A
C1082      F1085   1.358       .  S
C1083      C1086   1.406       .  A
C1083      C1090   1.406       .  A
C1086      C1087   1.403       .  A
C1086      F1091   1.358       .  S
C1087      C1088   1.409       .  A
C1087      F1093   1.357       .  S
C1088      C1089   1.405       .  A
C1089      C1090   1.395       .  A
C1089      F1092   1.358       .  S
C1090      F1094   1.358       .  S
C1097      C1098   1.403       .  A
C1097      C1102   1.398       .  A
C1097      F1115   1.358       .  S
C1098      C1099   1.406       .  A
C1098      C1103   1.485       .  S
C1099      C1100   1.402       .  A
C1099      F1104   1.358       .  S
C1100      C1101   1.412       .  A
C1100      F1116   1.357       .  S
C1101      C1102   1.412       .  A
C1102      F1105   1.357       .  S
C1103      C1106   1.408       .  A
C1103      C1110   1.407       .  A
C1106      C1107   1.401       .  A
C1106      F1111   1.358       .  S
C1107      C1108   1.404       .  A
C1107      F1113   1.358       .  S
C1108      C1109   1.404       .  A
C1109      C1110   1.398       .  A
C1109      F1112   1.358       .  S
C1110      F1114   1.358       .  S
C1117      C1118   1.404       .  A
C1117      C1122   1.400       .  A
C1117      F1135   1.358       .  S
C1118      C1119   1.404   1_554  A
C1118      C1123   1.478       .  S
C1119      C1120   1.399       .  A
C1119      F1124   1.358       .  S
C1120      C1121   1.408       .  A
C1120      F1136   1.358       .  S
C1121      C1122   1.409   1_556  A
C1122      F1125   1.358       .  S
C1123      C1126   1.405       .  A
C1123      C1130   1.404   1_654  A
C1126      C1127   1.400       .  A
C1126      F1131   1.358       .  S
C1127      C1128   1.406   1_655  A
C1127      F1133   1.358   1_545  S
C1128      C1129   1.407   1_554  A
C1129      C1130   1.399       .  A
C1129      F1132   1.358       .  S
C1130      F1134   1.358       .  S
C1137      C1138   1.408       .  A
C1137      C1142   1.401       .  A
C1137      F1155   1.358       .  S
C1138      C1139   1.408       .  A
C1138      C1143   1.487       .  S
C1139      C1140   1.399       .  A
C1139      F1144   1.358       .  S
C1140      C1141   1.405       .  A
C1140      F1156   1.358       .  S
C1141      C1142   1.406       .  A
C1142      F1145   1.358       .  S
C1143      C1146   1.408       .  A
C1143      C1150   1.406       .  A
C1146      C1147   1.400       .  A
C1146      F1151   1.358       .  S
C1147      C1148   1.407       .  A
C1147      F1153   1.357       .  S
C1148      C1149   1.409       .  A
C1149      C1150   1.400       .  A
C1149      F1152   1.358       .  S
C1150      F1154   1.358       .  S
C1157      C1158   1.408       .  A
C1157      C1162   1.397       .  A
C1157      F1175   1.358       .  S
C1158      C1159   1.408       .  A
C1158      C1163   1.488       .  S
C1159      C1160   1.401       .  A
C1159      F1164   1.358       .  S
C1160      C1161   1.408       .  A
C1160      F1176   1.358       .  S
C1161      C1162   1.406       .  A
C1162      F1165   1.358       .  S
C1163      C1166   1.408       .  A
C1163      C1170   1.408       .  A
C1166      C1167   1.398       .  A
C1166      F1171   1.358       .  S
C1167      C1168   1.406       .  A
C1167      F1173   1.358   1_565  S
C1168      C1169   1.407       .  A
C1169      C1170   1.400       .  A
C1169      F1172   1.358       .  S
C1170      F1174   1.358       .  S
