geometry optimzed in LAMMPS
_audit_creation_date              2020-11-30 
_audit_creation_method            'lammps2cif' 
_symmetry_space_group_name_H-M    'P1' 
_symmetry_Int_Tables_number       1 
_symmetry_cell_setting            triclinic 
loop_ 
_symmetry_equiv_pos_as_xyz 
  x,y,z 
_cell_length_a                    49.37313829 
_cell_length_b                    49.73447871146066 
_cell_length_c                    57.72766314598045 
_cell_angle_alpha                 89.85600931450544 
_cell_angle_beta                  89.11553539798518 
_cell_angle_gamma                 119.94875716213912 
loop_ 
_atom_site_label 
_atom_site_type_symbol 
_atom_site_fract_x 
_atom_site_fract_y 
_atom_site_fract_z 
_atom_site_charge 
O1          O  0.08614935  0.20438453  0.36910836    -0.87400
C2          C  0.10633001  0.13375591  0.36940228     0.88600
Mg3        Mg  0.04154972  0.19710363  0.35881261     1.58100
O4          O  0.13799297  0.18389196  0.32056385    -0.87200
O5          O  0.13395691  0.23191640  0.35551182    -0.74500
C6          C  0.00522583  0.11426432  0.26215481     0.93600
O7          O  0.03942275  0.13251601  0.38201201    -0.74300
O8          O  0.49283499  0.11921694  0.28088584    -0.81800
Mg9        Mg  0.08621886  0.17230088  0.39452127     1.58000
C10         C  0.12745867  0.14196323  0.25470489     0.93600
O11         O  0.13146104  0.20715564  0.41291703    -0.80100
H12         H  0.16670853  0.22577438  0.30674401    -0.05400
C13         C  0.05708265  0.10359150  0.31000293     0.88500
O14         O  0.05953899  0.21301648  0.32155294    -0.74600
O15         O  0.11238283  0.16102699  0.36973144    -0.87400
O16         O  0.14060145  0.14330922  0.27398970    -0.80200
C17         C  0.19030518  0.15991195  0.34083914     0.93700
C18         C  0.16074667  0.21829901  0.40972674     0.93500
Mg19       Mg  0.07907967  0.16056840  0.27811042     1.58000
O20         O  0.03450032  0.12497130  0.25999140    -0.80100
O21         O  0.12609529  0.20079608  0.28966946    -0.74300
O22         O  0.18406012  0.17616669  0.35448444    -0.80200
O23         O  0.05885719  0.18550137  0.41973727    -0.81900
O24         O  0.48307093  0.15873901  0.31786103    -0.80200
C25         C  0.14479098  0.20422571  0.30568459     0.88000
O26         O  0.05364628  0.17246953  0.30249222    -0.87300
O27         O  0.07958746  0.12866878  0.30369476    -0.87400
O28         O  0.03133356  0.10127184  0.31647494    -0.74500
Mg29       Mg  0.15462727  0.19986438  0.35486235     1.58000
O30         O  0.17291466  0.14515610  0.32392748    -0.81900
H31         H  0.10570884  0.24976988  0.36227759    -0.05600
O32         O  0.02776684  0.14954209  0.35098232    -0.87100
H33         H  0.99922068  0.10741160  0.36448500    -0.05400
H34         H  0.06972203  0.21395787  0.28728627    -0.05600
C35         C  0.02098164  0.12908184  0.36577339     0.87900
C36         C  0.10848634  0.22952868  0.36274929     0.88500
C37         C  0.06093116  0.20011482  0.30297210     0.88600
H38         H  0.05977917  0.08333085  0.31085562    -0.05600
O39         O  0.10835013  0.12113463  0.35086079    -0.74600
Mg40       Mg  0.01101276  0.13380730  0.31668628     1.58000
H41         H  0.09833177  0.12004107  0.38519092    -0.05600
C42         C  0.03514287  0.18891101  0.41716488     0.93600
O43         O  0.49447949  0.18869501  0.34897204    -0.81800
C44         C  0.47738933  0.17508926  0.33173855     0.93600
O45         O  0.17246120  0.21648955  0.39046463    -0.81800
Mg46       Mg  0.12479636  0.13632077  0.31314161     1.58200
O47         O  0.02348022  0.18763226  0.39724018    -0.80200
O48         O  0.10472800  0.14690532  0.25318441    -0.81800
C49         C  0.15250135  0.09642881  0.21533382    -0.09900
C50         C  0.14546733  0.06690761  0.22322795    -0.03800
C51         C  0.14336446  0.04399511  0.20806756    -0.09900
C52         C  0.15147833  0.05172212  0.18448892     0.11000
C53         C  0.15725591  0.08095639  0.17591402    -0.01700
C54         C  0.15666583  0.10308159  0.19114549     0.10800
C55         C  0.16096845  0.13115322  0.18165121    -0.11700
C56         C  0.16341077  0.13628645  0.15770070    -0.11700
C57         C  0.16552846  0.11530133  0.14263735     0.10800
C58         C  0.16415637  0.08825470  0.15202406    -0.01700
C59         C  0.15514174  0.03152045  0.16946626    -0.11900
C60         C  0.16552404  0.04040357  0.14663131    -0.11900
C61         C  0.17001145  0.06862967  0.13757595     0.11000
C62         C  0.18058909  0.07817159  0.11454521    -0.09900
C63         C  0.17864124  0.10291010  0.10497289    -0.03800
C64         C  0.16965557  0.12057609  0.11842934    -0.09900
H65         H  0.16222965  0.14940319  0.19245955     0.08300
H66         H  0.16529907  0.15758557  0.15116392     0.08300
H67         H  0.15143278  0.00931281  0.17559004     0.08500
H68         H  0.16932469  0.02466495  0.13597958     0.08500
H69         H  0.14033041  0.06122691  0.24151702     0.04900
H70         H  0.18402517  0.10838382  0.08666963     0.04900
C71         C  0.46802592  0.08009748  0.20404197    -0.09900
C72         C  0.44516571  0.05162638  0.21309464    -0.03800
C73         C  0.41634624  0.03413093  0.20270204    -0.09900
C74         C  0.41279890  0.04133040  0.17957929     0.11000
C75         C  0.43768056  0.06821942  0.16853399    -0.01700
C76         C  0.46509997  0.08821531  0.18106124     0.10800
C77         C  0.48854244  0.11547698  0.17027773    -0.11700
C78         C  0.48595813  0.12240859  0.14724430    -0.11700
C79         C  0.45955307  0.10265030  0.13430430     0.10800
C80         C  0.43485060  0.07552765  0.14516662    -0.01700
C81         C  0.38551599  0.02264528  0.16720270    -0.11900
C82         C  0.38308533  0.02937288  0.14403050    -0.11900
C83         C  0.40753471  0.05546914  0.13262669     0.11000
C84         C  0.40584148  0.06188710  0.10890263    -0.09900
C85         C  0.43101327  0.08788071  0.09829820    -0.03800
C86         C  0.45738098  0.10874470  0.11061530    -0.09900
H87         H  0.50944045  0.13134807  0.17939898     0.08300
H88         H  0.50507025  0.14326403  0.13955130     0.08300
H89         H  0.36618044  0.00222553  0.17520279     0.08500
H90         H  0.36192164  0.01382030  0.13502774     0.08500
H91         H  0.44865361  0.04433434  0.23000040     0.04900
H92         H  0.42976442  0.09233337  0.08003421     0.04900
O93         O  0.07983540  0.45147639  0.29834822    -0.87400
C94         C  0.05187357  0.36032568  0.30006506     0.88600
Mg95       Mg  0.12756095  0.48605263  0.30282646     1.58100
O96         O  0.03465405  0.39017301  0.35025509    -0.87200
O97         O  0.03459143  0.43878350  0.31396210    -0.74500
C98         C  0.17864160  0.44701420  0.39507327     0.93600
O99         O  0.11771962  0.41904876  0.28107963    -0.74300
O100        O  0.18775347  0.45951218  0.37513191    -0.81800
Mg101      Mg  0.07121376  0.41722225  0.27280656     1.58000
C102        C  0.05070316  0.36038814  0.41422607     0.93600
O103        O  0.02444946  0.41129404  0.25991171    -0.80100
H104        H  0.01270943  0.40946397  0.36664071    -0.05400
C105        C  0.11285056  0.38173264  0.35550660     0.88500
O106        O  0.11782705  0.49145684  0.34110251    -0.74600
O107        O  0.04664222  0.38218557  0.29943635    -0.87400
O108        O  0.03409882  0.35306877  0.39617087    -0.80200
C109        C  0.47341405  0.30976112  0.34304407     0.93700
C110        C  0.99542662  0.39543997  0.26526124     0.93500
Mg111      Mg  0.10194122  0.42324616  0.38767211     1.58000
O112        O  0.14965723  0.43037015  0.40058075    -0.80100
O113        O  0.05477509  0.42048268  0.38005534    -0.74300
O114        O  0.47742756  0.33085715  0.32851474    -0.80200
O115        O  0.09698265  0.45624116  0.24560900    -0.81900
O116        O  0.19468236  0.00543058  0.34170831    -0.80200
C117        C  0.03299624  0.40655819  0.36562920     0.88000
O118        O  0.12536157  0.45804389  0.36092353    -0.87300
O119        O  0.09323347  0.38863728  0.36198969    -0.87400
O120        O  0.13885644  0.40198388  0.34679805    -0.74500
Mg121      Mg  0.01025328  0.38612191  0.31872393     1.58000
O122        O  0.49493155  0.31280845  0.35640748    -0.81900
H123        H  0.06626730  0.48268935  0.30382379    -0.05600
O124        O  0.13775240  0.44980345  0.31070155    -0.87100
H125        H  0.15932419  0.42959437  0.29509080    -0.05400
H126        H  0.11497924  0.48790584  0.37618577    -0.05600
C127        C  0.13930313  0.43294194  0.29566268     0.87900
C128        C  0.06052284  0.45871642  0.30498017     0.88500
C129        C  0.11964851  0.47961275  0.36016626     0.88600
H130        H  0.10741305  0.35784011  0.35668011    -0.05600
O131        O  0.05381371  0.34848837  0.31906668    -0.74600
Mg132      Mg  0.16221598  0.45469591  0.34201484     1.58000
H133        H  0.05605808  0.35178716  0.28398196    -0.05600
C134        C  0.12480624  0.47913196  0.24653994     0.93600
O135        O  0.17881293  0.02302681  0.31248414    -0.81800
C136        C  0.19899320  0.02665543  0.32724326     0.93600
O137        O  0.48619909  0.37941467  0.28772287    -0.81800
Mg138      Mg  0.04513268  0.35382129  0.35754807     1.58200
O139        O  0.14068161  0.48551681  0.26482279    -0.80200
O140        O  0.07748279  0.38476226  0.41493416    -0.81800
O141        O  0.36044987  0.41952982  0.29587785    -0.87400
C142        C  0.29627109  0.44728077  0.30661832     0.88600
Mg143      Mg  0.35059499  0.37307231  0.30258016     1.58100
O144        O  0.35653887  0.47260917  0.34762258    -0.87200
O145        O  0.39484116  0.46687609  0.30483700    -0.74500
C146        C  0.28564172  0.33857967  0.40714804     0.93600
O147        O  0.28668958  0.37862316  0.28981056    -0.74300
O148        O  0.28549591  0.32614314  0.38790455    -0.81800
Mg149      Mg  0.32749550  0.42399142  0.27466834     1.58000
C150        C  0.32754615  0.46539663  0.41754126     0.93600
O151        O  0.36345977  0.46761652  0.25508210    -0.80100
H152        H  0.40141543  0.49698001  0.35656186    -0.05400
C153        C  0.27438909  0.39598647  0.36622681     0.88500
O154        O  0.37498249  0.38755691  0.33778995    -0.74600
O155        O  0.32263391  0.45142311  0.30198143    -0.87400
O156        O  0.33358708  0.48018202  0.39840097    -0.80200
C157        C  0.33839244  0.03081119  0.34438059     0.93700
C158        C  0.37631217  0.49689721  0.25698003     0.93500
Mg159      Mg  0.33436762  0.41192581  0.39031536     1.58000
O160        O  0.29799908  0.36779338  0.40946158    -0.80100
O161        O  0.37556029  0.45737995  0.37542388    -0.74300
O162        O  0.34927121  0.02403601  0.32657638    -0.80200
O163        O  0.33650428  0.39719326  0.24649506    -0.81900
O164        O  0.31643375  0.31260186  0.34341196    -0.80200
C165        C  0.37871350  0.47670283  0.35967925     0.88000
O166        O  0.33984420  0.38495861  0.36280965    -0.87300
O167        O  0.30163750  0.41670433  0.36907526    -0.87400
O168        O  0.26800112  0.36933413  0.35923525    -0.74500
Mg169      Mg  0.36668167  0.49103036  0.31293504     1.58000
O170        O  0.32665366  0.01248399  0.36163458    -0.81900
H171        H  0.40635841  0.43484174  0.29450879    -0.05600
O172        O  0.30643895  0.36344057  0.31714701    -0.87100
H173        H  0.26145831  0.33882621  0.30854430    -0.05400
H174        H  0.38305249  0.39616377  0.37210622    -0.05600
C175        C  0.28401735  0.35921991  0.30532014     0.87900
C176        C  0.38790222  0.44006840  0.29797238     0.88500
C177        C  0.36641409  0.38953631  0.35831128     0.88600
H178        H  0.25561287  0.40089530  0.36920360    -0.05600
O179        O  0.28806611  0.44953498  0.32718420    -0.74600
Mg180      Mg  0.29638490  0.34510887  0.35149650     1.58000
H181        H  0.27952473  0.44083488  0.29293297    -0.05600
C182        C  0.33578533  0.37137319  0.24823139     0.93600
O183        O  0.34147195  0.32416970  0.30923667    -0.81800
C184        C  0.32924912  0.30613705  0.32660859     0.93600
O185        O  0.37571341  0.01059700  0.27963666    -0.81800
Mg186      Mg  0.31253357  0.46366843  0.36238785     1.58200
O187        O  0.32850875  0.35629649  0.26727649    -0.80200
O188        O  0.32561132  0.43892263  0.41886671    -0.81800
C189        C  0.43672939  0.35345696  0.21924656    -0.09900
C190        C  0.41000903  0.35125093  0.23006052    -0.03800
C191        C  0.38168229  0.33962698  0.21876065    -0.09900
C192        C  0.37879935  0.32816154  0.19617713     0.11000
C193        C  0.40487402  0.32843903  0.18513980    -0.01700
C194        C  0.43409011  0.34142288  0.19648474     0.10800
C195        C  0.45957131  0.34189785  0.18467185    -0.11700
C196        C  0.45619838  0.32895207  0.16265394    -0.11700
C197        C  0.42735464  0.31539619  0.15147420     0.10800
C198        C  0.40150206  0.31538921  0.16278474    -0.01700
C199        C  0.35026418  0.31565771  0.18467256    -0.11900
C200        C  0.34706761  0.30320339  0.16273728    -0.11900
C201        C  0.37218445  0.30246985  0.15168146     0.11000
C202        C  0.36902078  0.28983966  0.12948444    -0.09900
C203        C  0.39405810  0.28888283  0.11908935    -0.03800
C204        C  0.42311700  0.30133663  0.12944883    -0.09900
H205        H  0.48243384  0.35225137  0.19226865     0.08300
H206        H  0.47635508  0.32951338  0.15446113     0.08300
H207        H  0.33003037  0.31517881  0.19262346     0.08500
H208        H  0.32457107  0.29385576  0.15461537     0.08500
H209        H  0.41075565  0.35818072  0.24791707     0.04900
H210        H  0.39101847  0.27907591  0.10189759     0.04900
O211        O  0.26035751  0.00651602  0.95440848    -0.87400
C212        C  0.18198988  0.44864860  0.99695374     0.88600
Mg213      Mg  0.30523101  0.00943316  0.95987125     1.58100
O214        O  0.21867487  0.03019126  0.00716775    -0.87200
O215        O  0.23861128  0.03558428  0.95401475    -0.74500
C216        C  0.33246841  0.03450804  0.07282460     0.93600
O217        O  0.23897995  0.43593764  0.97999681    -0.74300
O218        O  0.33751622  0.02121008  0.05575947    -0.81800
Mg219      Mg  0.21858763  0.45656863  0.95459826     1.58000
C220        C  0.23250685  0.06079066  0.07471769     0.93600
O221        O  0.19354496  0.47066087  0.92754541    -0.80100
H222        H  0.23177088  0.07319626  0.99618371    -0.05400
C223        C  0.24418092  0.47607041  0.05070498     0.88500
O224        O  0.32343049  0.05433554  0.98102016    -0.74600
O225        O  0.19839413  0.46941526  0.98285719    -0.87400
O226        O  0.21158575  0.04095082  0.06183641    -0.80200
C227        C  0.13919353  0.49561189  0.01831947     0.93700
C228        C  0.17388348  0.48028237  0.92773130     0.93500
Mg229      Mg  0.28430439  0.05286448  0.04435751     1.58000
O230        O  0.31139983  0.04228706  0.07231605    -0.80100
O231        O  0.26211702  0.07060484  0.01812746    -0.74300
O232        O  0.14835791  0.49288686  0.99808318    -0.80200
O233        O  0.23941873  0.44109436  0.92504900    -0.81900
O234        O  0.35913297  0.02109166  0.00269038    -0.80200
C235        C  0.23691951  0.05848991  0.00687065     0.88000
O236        O  0.30625129  0.04081054  0.01672683    -0.87300
O237        O  0.24495385  0.50005335  0.04395695    -0.87400
O238        O  0.26467223  0.46920010  0.04418429    -0.74500
Mg239      Mg  0.19312144  0.01060728  0.97611164     1.58000
O240        O  0.15562465  0.49990730  0.03611182    -0.81900
H241        H  0.27872852  0.04633839  0.93634549    -0.05600
O242        O  0.28408354  0.47429302  0.99073093    -0.87100
H243        H  0.26832151  0.43055369  0.00126397    -0.05400
H244        H  0.33379524  0.08514345  0.00707861    -0.05600
C245        C  0.26433719  0.44636822  0.99093204     0.87900
C246        C  0.26001794  0.02993516  0.94762839     0.88500
C247        C  0.32177902  0.06106846  0.00203035     0.88600
H248        H  0.22521164  0.46020222  0.06205530    -0.05600
O249        O  0.18077467  0.45438841  0.01823637    -0.74600
Mg250      Mg  0.31005097  0.49288470  0.02195498     1.58000
H251        H  0.16896287  0.42493110  0.99113395    -0.05600
C252        C  0.26703749  0.44563027  0.92212440     0.93600
O253        O  0.35074299  0.00864135  0.96542064    -0.81800
C254        C  0.36748123  0.01490618  0.98329212     0.93600
O255        O  0.16984498  0.49345560  0.94522385    -0.81800
Mg256      Mg  0.20097874  0.49875749  0.03990691     1.58200
O257        O  0.28947800  0.46410464  0.93471888    -0.80200
O258        O  0.26090515  0.06715918  0.07309854    -0.81800
O259        O  0.24808221  0.23271801  0.95966967    -0.87400
C260        C  0.26730753  0.31655139  0.98504103     0.88600
Mg261      Mg  0.20510731  0.19084651  0.96726801     1.58100
O262        O  0.31117244  0.28407294  0.00665529    -0.87200
O263        O  0.29895414  0.25432934  0.95696818    -0.74500
C264        C  0.19651695  0.18906269  0.08104112     0.93600
O265        O  0.19949307  0.25629721  0.97216734    -0.74300
O266        O  0.17839427  0.17809079  0.06381201    -0.81800
Mg267      Mg  0.24215668  0.27027564  0.94787396     1.58000
C268        C  0.32068744  0.28174078  0.07687409     0.93600
O269        O  0.28187670  0.28433624  0.92147022    -0.80100
H270        H  0.33861943  0.26561631  0.00141170    -0.05400
C271        C  0.23363111  0.26834343  0.04587219     0.88500
O272        O  0.22876947  0.17530085  0.99380306    -0.74600
O273        O  0.27292063  0.29804337  0.97484764    -0.87400
O274        O  0.32553690  0.29976704  0.05988240    -0.80200
C275        C  0.35653384  0.36576484  0.00617112     0.93700
C276        C  0.30506157  0.31148656  0.91915484     0.93500
Mg277      Mg  0.26224653  0.22789904  0.05086318     1.58000
O278        O  0.22399663  0.21217583  0.07894763    -0.80100
O279        O  0.30372767  0.24227256  0.02521881    -0.74300
O280        O  0.34489567  0.35435059  0.98651839    -0.80200
O281        O  0.20980642  0.24209178  0.91904451    -0.81900
O282        O  0.15723639  0.14696920  0.01324941    -0.80200
C283        C  0.31887724  0.26439345  0.01076656     0.88000
O284        O  0.23000752  0.20053325  0.02490602    -0.87300
O285        O  0.25665893  0.26615787  0.04020204    -0.87400
O286        O  0.20605714  0.24657479  0.04210670    -0.74500
Mg287      Mg  0.31861921  0.30364195  0.97227446     1.58000
O288        O  0.34445625  0.35158196  0.02505586    -0.81900
H289        H  0.26898559  0.21044175  0.94632087    -0.05600
O290        O  0.19380310  0.21625718  0.99222261    -0.87100
H291        H  0.16454955  0.23290791  0.99594864    -0.05400
H292        H  0.24542519  0.17021279  0.02445426    -0.05600
C293        C  0.18490319  0.23474787  0.98713313     0.87900
C294        C  0.27163711  0.23141436  0.95400429     0.88500
C295        C  0.23492881  0.18138449  0.01502000     0.88600
H296        H  0.23703351  0.28941765  0.05388922    -0.05600
O297        O  0.27415094  0.32296759  0.00616575    -0.74600
Mg298      Mg  0.18524232  0.19754629  0.02690647     1.58000
H299        H  0.25590739  0.32707164  0.97593121    -0.05600
C300        C  0.18507748  0.21592294  0.92114410     0.93600
O301        O  0.15914681  0.14826234  0.97461678    -0.81800
C302        C  0.14604334  0.13516429  0.99360624     0.93600
O303        O  0.32336638  0.32464222  0.93595628    -0.81800
Mg304      Mg  0.29915342  0.30815675  0.03228059     1.58200
O305        O  0.17932973  0.19880483  0.93886102    -0.80200
O306        O  0.29627047  0.25532750  0.07883036    -0.81800
O307        O  0.00404054  0.26636480  0.04663148    -0.87400
C308        C  0.46454980  0.18690659  0.01155820     0.88600
Mg309      Mg  0.99773656  0.30550818  0.03872135     1.58100
O310        O  0.03586185  0.22778508  0.99604932    -0.87200
O311        O  0.04054839  0.25355825  0.04736429    -0.74500
C312        C  0.01531683  0.32303005  0.92504567     0.93600
O313        O  0.44116449  0.23547375  0.02825921    -0.74300
O314        O  0.99873078  0.32493651  0.94129574    -0.81800
Mg315      Mg  0.47134284  0.22512542  0.05252130     1.58000
C316        C  0.06004461  0.24160424  0.92485171     0.93600
O317        O  0.49405019  0.20988117  0.08060245    -0.80100
H318        H  0.08085792  0.24970329  0.00468263    -0.05400
C319        C  0.48037810  0.23623777  0.95283333     0.88500
O320        O  0.04133105  0.32754204  0.01496778    -0.74600
O321        O  0.48504241  0.20607289  0.02418780    -0.87400
O322        O  0.04535297  0.21829193  0.93861553    -0.80200
C323        C  0.51495443  0.14924939  0.99460214     0.93700
C324        C  0.49944697  0.18741772  0.08025913     0.93500
Mg325      Mg  0.04310352  0.28573223  0.95550947     1.58000
O326        O  0.02583727  0.30435579  0.92625874    -0.80100
O327        O  0.06950535  0.27333276  0.98180407    -0.74300
O328        O  0.51240295  0.16088142  0.01345747    -0.80200
O329        O  0.45711431  0.24530621  0.08161617    -0.81900
O330        O  0.99649288  0.34742678  0.99043927    -0.83800
C331        C  0.06280174  0.24987091  0.99443767     0.88000
O332        O  0.02660619  0.30403975  0.98188601    -0.87300
O333        O  0.50731634  0.24351138  0.95813742    -0.87400
O334        O  0.46788334  0.25199241  0.95922685    -0.74500
Mg335      Mg  0.02092990  0.20600962  0.02970000     1.58000
O336        O  0.52058755  0.16359566  0.97519510    -0.81900
H337        H  0.04515767  0.29287877  0.06164918    -0.05600
O338        O  0.47395793  0.27898284  0.01095745    -0.87100
H339        H  0.42799473  0.25773754  0.00543949    -0.05400
H340        H  0.07008061  0.33889371  0.98671248    -0.05600
C341        C  0.44696017  0.25774848  0.01456267     0.87900
C342        C  0.03028156  0.27176798  0.05243651     0.88500
C343        C  0.04688037  0.32423121  0.99398665     0.88600
H344        H  0.46656927  0.21503932  0.94341004    -0.05600
O345        O  0.47034944  0.18369770  0.99052543    -0.74600
Mg346      Mg  0.48567671  0.29899152  0.97641924     1.58000
H347        H  0.44105494  0.17280198  0.01847120    -0.05600
C348        C  0.45693402  0.27055106  0.08403186     0.93600
O349        O  0.99076220  0.34651513  0.02895682    -0.81800
C350        C  0.99459967  0.35963917  0.00917004     0.93600
O351        O  0.51204250  0.18264802  0.06260920    -0.81800
Mg352      Mg  0.51393925  0.20503857  0.96617027     1.58200
O353        O  0.46871855  0.29232187  0.06877932    -0.80200
O354        O  0.06069367  0.26711136  0.92788434    -0.81800
O355        O  0.19997912  0.08356724  0.63056332    -0.87400
C356        C  0.13499446  0.11214597  0.63580972     0.88600
Mg357      Mg  0.18799283  0.03655942  0.63821804     1.58100
O358        O  0.18730720  0.13344219  0.68229601    -0.87200
O359        O  0.23220507  0.12945001  0.64379740    -0.74500
C360        C  0.10669480  0.99762876  0.73723634     0.93600
O361        O  0.12701215  0.04399898  0.61830796    -0.74300
O362        O  0.11744367  0.49699570  0.71863852    -0.81800
Mg363      Mg  0.16997631  0.08999994  0.60690591     1.58000
C364        C  0.14753212  0.12595186  0.74818713     0.93600
O365        O  0.20760883  0.13569859  0.58947185    -0.80100
H366        H  0.23003364  0.15726290  0.69558409    -0.05400
C367        C  0.10188799  0.05841224  0.69355670     0.88500
O368        O  0.20441684  0.04922242  0.67591925    -0.74600
O369        O  0.16158317  0.11568224  0.63394582    -0.87400
O370        O  0.15847126  0.14096302  0.72934887    -0.80200
C371        C  0.17062044  0.19410574  0.66953537     0.93700
C372        C  0.22016438  0.16455456  0.59379264     0.93500
Mg373      Mg  0.15642872  0.07175697  0.72423894     1.58000
O374        O  0.11793717  0.02645320  0.74102413    -0.80100
O375        O  0.20047915  0.11742022  0.71303958    -0.74300
O376        O  0.18532291  0.18767548  0.65429201    -0.80200
O377        O  0.18117024  0.06357112  0.57949415    -0.81900
O378        O  0.14970403  0.47725384  0.67969910    -0.80200
C379        C  0.20691626  0.13708536  0.69680684     0.88000
O380        O  0.16603913  0.04597934  0.69765187    -0.87300
O381        O  0.12838551  0.07819937  0.69932005    -0.87400
O382        O  0.09635735  0.03237437  0.68580795    -0.74500
Mg383      Mg  0.20369305  0.15382081  0.64888647     1.58000
O384        O  0.15467570  0.17528371  0.68570207    -0.81900
H385        H  0.24547804  0.09849234  0.63414519    -0.05600
O386        O  0.14157534  0.02717165  0.64783202    -0.87100
H387        H  0.09877384  0.00299106  0.63479205    -0.05400
H388        H  0.20758663  0.05691488  0.71055335    -0.05600
C389        C  0.12160280  0.02359129  0.63368860     0.87900
C390        C  0.22665643  0.10358344  0.63572062     0.88500
C391        C  0.19302470  0.05069451  0.69547833     0.88600
H392        H  0.08320080  0.06380395  0.69439370    -0.05600
O393        O  0.12344029  0.11360650  0.65529574    -0.74600
Mg394      Mg  0.12483954  0.00766323  0.68188775     1.58000
H395        H  0.12088676  0.10686607  0.62053726    -0.05600
C396        C  0.18230155  0.03851495  0.58032323     0.93600
O397        O  0.18247896  0.48749024  0.64975642    -0.81800
C398        C  0.16467769  0.46943618  0.66572046     0.93600
O399        O  0.21974469  0.17469188  0.61384233    -0.81800
Mg400      Mg  0.14191612  0.12563335  0.69243619     1.58200
O401        O  0.17814114  0.02345904  0.59930432    -0.80200
O402        O  0.14273303  0.09838772  0.75066689    -0.81800
C403        C  0.13715582  0.21213200  0.86984517    -0.09900
C404        C  0.11766420  0.22048699  0.88151784    -0.03800
C405        C  0.08860582  0.21362053  0.87307761    -0.09900
C406        C  0.07995190  0.20029810  0.85080049     0.11000
C407        C  0.09939665  0.19112491  0.83879680    -0.01700
C408        C  0.12775139  0.19637640  0.84869236     0.10800
C409        C  0.14511091  0.18452750  0.83779030    -0.11700
C410        C  0.13451593  0.16717939  0.81768642    -0.11700
C411        C  0.10721084  0.16271678  0.80696129     0.10800
C412        C  0.08993318  0.17562758  0.81729353    -0.01700
C413        C  0.05280133  0.19619543  0.84006789    -0.11900
C414        C  0.04492319  0.18338605  0.81795463    -0.11900
C415        C  0.06288356  0.17250718  0.80646026     0.11000
C416        C  0.05404189  0.15758380  0.78480337    -0.09900
C417        C  0.06994510  0.14300839  0.77578432    -0.03800
C418        C  0.09605369  0.14493635  0.78659258    -0.09900
H419        H  0.16653337  0.18771041  0.84517464     0.08300
H420        H  0.14809286  0.15741628  0.81066636     0.08300
H421        H  0.03787933  0.20356423  0.84847606     0.08500
H422        H  0.02399708  0.18102847  0.81024386     0.08500
H423        H  0.12462771  0.23060054  0.89852459     0.04900
H424        H  0.06232197  0.13055150  0.75961789     0.04900
C425        C  0.12053517  0.43459520  0.87987041    -0.09900
C426        C  0.10085057  0.40594615  0.89070574    -0.03800
C427        C  0.07162226  0.38493992  0.88192218    -0.09900
C428        C  0.06209617  0.39243406  0.86107892     0.11000
C429        C  0.08177087  0.42165266  0.84987745    -0.01700
C430        C  0.11111754  0.44285759  0.85930147     0.10800
C431        C  0.13041780  0.47121069  0.84761779    -0.11700
C432        C  0.12104369  0.47876794  0.82698282    -0.11700
C433        C  0.09197635  0.45828216  0.81733493     0.10800
C434        C  0.07240604  0.42922982  0.82884562    -0.01700
C435        C  0.03413865  0.37101360  0.85063131    -0.11900
C436        C  0.02546771  0.37802158  0.82970626    -0.11900
C437        C  0.04415940  0.40691046  0.81868070     0.11000
C438        C  0.03502271  0.41399692  0.79772261    -0.09900
C439        C  0.05217479  0.44379503  0.78827163    -0.03800
C440        C  0.08188414  0.46525441  0.79626720    -0.09900
H441        H  0.15304688  0.48773658  0.85434100     0.08300
H442        H  0.13677183  0.50080511  0.81868814     0.08300
H443        H  0.01890758  0.34841423  0.85834121     0.08500
H444        H  0.00357903  0.36074485  0.82239850     0.08500
H445        H  0.10846825  0.39992278  0.90644872     0.04900
H446        H  0.04384121  0.44910428  0.77262045     0.04900
O447        O  0.40367953  0.06953696  0.71324244    -0.87400
C448        C  0.48394403  0.09672429  0.67424278     0.88600
Mg449      Mg  0.36000702  0.02792817  0.70666418     1.58100
O450        O  0.44695966  0.14041489  0.66360237    -0.87200
O451        O  0.42317294  0.11967323  0.71639445    -0.74500
C452        C  0.34029817  0.03160814  0.59408175     0.93600
O453        O  0.42687790  0.02618688  0.68800259    -0.74300
O454        O  0.33699714  0.01256862  0.61008874    -0.81800
Mg455      Mg  0.44479719  0.06444484  0.71507454     1.58000
C456        C  0.43385098  0.15804564  0.59443211     0.93600
O457        O  0.46680992  0.09942596  0.74452375    -0.80100
H458        H  0.43057125  0.16763771  0.67489632    -0.05400
C459        C  0.42722894  0.07003383  0.61840113     0.88500
O460        O  0.34184241  0.05477687  0.68577684    -0.74600
O461        O  0.46712504  0.10009861  0.68862353    -0.87400
O462        O  0.45631080  0.16152434  0.60710315    -0.80200
C463        C  0.02875070  0.18883953  0.65630865     0.93700
C464        C  0.48896998  0.12734656  0.74617934     0.93500
Mg465      Mg  0.38353059  0.09672855  0.62461582     1.58000
O466        O  0.35879994  0.06082088  0.59573509    -0.80100
O467        O  0.40264133  0.13510114  0.65192403    -0.74300
O468        O  0.01722420  0.17563094  0.67587734    -0.80200
O469        O  0.42175835  0.02608262  0.74249310    -0.81900
O470        O  0.31243746  0.48672214  0.66072031    -0.80200
C471        C  0.42725412  0.14879344  0.66378091     0.88000
O472        O  0.36191537  0.06085490  0.65086345    -0.87300
O473        O  0.42497781  0.09208064  0.62588627    -0.87400
O474        O  0.40762333  0.04220852  0.62404145    -0.74500
Mg475      Mg  0.47001789  0.14385624  0.69597743     1.58000
O476        O  0.01386428  0.17954908  0.63750530    -0.81900
H477        H  0.38261413  0.08769871  0.73215004    -0.05600
O478        O  0.38289856  0.02156249  0.67637719    -0.87100
H479        H  0.39837432  0.99346821  0.66540368    -0.05400
H480        H  0.33194182  0.07534201  0.65940444    -0.05600
C481        C  0.40212107  0.01258403  0.67636030     0.87900
C482        C  0.40234199  0.09188874  0.72120297     0.88500
C483        C  0.34450874  0.06386086  0.66488848     0.88600
H484        H  0.44706972  0.07463851  0.60743815    -0.05600
O485        O  0.48640943  0.10605020  0.65340902    -0.74600
Mg486      Mg  0.36087602  0.01745930  0.64405933     1.58000
H487        H  0.49624992  0.08485020  0.67937167    -0.05600
C488        C  0.39407652  0.00318184  0.74458656     0.93600
O489        O  0.31670011  0.48686202  0.69912480    -0.81800
C490        C  0.30186158  0.47494852  0.68068917     0.93600
O491        O  0.49573750  0.14724031  0.72988681    -0.81800
Mg492      Mg  0.46858774  0.13345130  0.63258421     1.58200
O493        O  0.37206594  0.00004912  0.73166512    -0.80200
O494        O  0.40619685  0.13517255  0.59706377    -0.81800
O495        O  0.41344840  0.36077772  0.70000894    -0.87400
C496        C  0.43560924  0.29178539  0.70315209     0.88600
Mg497      Mg  0.37025694  0.35587166  0.68836808     1.58100
O498        O  0.47593226  0.34932988  0.66043352    -0.87200
O499        O  0.46396229  0.39093112  0.69551194    -0.74500
C500        C  0.35564594  0.28913395  0.58686582     0.93600
O501        O  0.36730394  0.28757179  0.70691006    -0.74300
O502        O  0.33891478  0.29226068  0.60247279    -0.81800
Mg503      Mg  0.41029340  0.32666180  0.72453404     1.58000
C504        C  0.47908871  0.31889927  0.59460790     0.93600
O505        O  0.44933730  0.36347233  0.74552133    -0.80100
H506        H  0.50420944  0.39363763  0.65110424    -0.05400
C507        C  0.39622802  0.27156969  0.63875342     0.88500
O508        O  0.39264458  0.37759893  0.65305627    -0.74600
O509        O  0.44141025  0.31892213  0.70375470    -0.87400
O510        O  0.48836461  0.31953410  0.61511292    -0.80200
C511        C  0.02261731  0.32221474  0.68209377     0.93700
C512        C  0.47823893  0.37417251  0.74854043     0.93500
Mg513      Mg  0.42392453  0.33176819  0.61240619     1.58000
O514        O  0.38396834  0.29663552  0.59004310    -0.80100
O515        O  0.46708285  0.37036497  0.63018463    -0.74300
O516        O  0.01533689  0.33698934  0.69656950    -0.80200
O517        O  0.37965272  0.33498846  0.74770441    -0.81900
O518        O  0.31769600  0.32490283  0.64171495    -0.80200
C519        C  0.48354552  0.37180875  0.64734527     0.88000
O520        O  0.39263876  0.34027170  0.63351931    -0.87300
O521        O  0.41979670  0.29753714  0.63716783    -0.87400
O522        O  0.36902714  0.26821755  0.64076345    -0.74500
Mg523      Mg  0.48586250  0.35957182  0.69607657     1.58000
O524        O  0.00689271  0.31002403  0.66399702    -0.81900
H525        H  0.43338131  0.40692381  0.69740038    -0.05600
O526        O  0.35681705  0.30896434  0.67761669    -0.87100
H527        H  0.32981366  0.26420533  0.68632697    -0.05400
H528        H  0.40815804  0.38246666  0.61969815    -0.05600
C529        C  0.35017641  0.28621191  0.69020426     0.87900
C530        C  0.43658754  0.38694737  0.69782631     0.88500
C531        C  0.39800635  0.36722319  0.63458579     0.88600
H532        H  0.39882971  0.25123750  0.63874541    -0.05600
O533        O  0.43975842  0.28043245  0.68476481    -0.74600
Mg534      Mg  0.34757759  0.30030253  0.64121375     1.58000
H535        H  0.42552563  0.27706058  0.71831830    -0.05600
C536        C  0.35739214  0.34026636  0.74532871     0.93600
O537        O  0.32515321  0.35069059  0.67484477    -0.81800
C538        C  0.31006573  0.33935712  0.65633954     0.93600
O539        O  0.99519843  0.37096502  0.73476765    -0.81800
Mg540      Mg  0.46307355  0.30284092  0.65017690     1.58200
O541        O  0.34761738  0.34244031  0.72541818    -0.80200
O542        O  0.45551992  0.32176812  0.59021131    -0.81800
C543        C  0.31155218  0.42281163  0.87920707    -0.09900
C544        C  0.31325527  0.39934126  0.89128942    -0.03800
C545        C  0.32071589  0.37895174  0.88009913    -0.09900
C546        C  0.32340889  0.37994412  0.85562985     0.11000
C547        C  0.32500008  0.40555685  0.84347263    -0.01700
C548        C  0.32085331  0.42813233  0.85553544     0.10800
C549        C  0.32600733  0.45500730  0.84356158    -0.11700
C550        C  0.33581964  0.45988067  0.82029233    -0.11700
C551        C  0.33796157  0.43677731  0.80774683     0.10800
C552        C  0.33099100  0.40870824  0.81922956    -0.01700
C553        C  0.32443588  0.35638347  0.84296043    -0.11900
C554        C  0.32542410  0.35726878  0.81876418    -0.11900
C555        C  0.32985856  0.38372630  0.80653088     0.11000
C556        C  0.33303219  0.38630536  0.78201982    -0.09900
C557        C  0.34263307  0.41501858  0.77141046    -0.03800
C558        C  0.34692020  0.44068066  0.78404639    -0.09900
H559        H  0.32349063  0.47288646  0.85230414     0.08300
H560        H  0.34063101  0.48139672  0.81196830     0.08300
H561        H  0.32299293  0.33634962  0.85152804     0.08500
H562        H  0.32343294  0.33728430  0.80992641     0.08500
H563        H  0.30921159  0.39724985  0.90991224     0.04900
H564        H  0.34719456  0.41758685  0.75283963     0.04900
C565        C  0.00070258  0.23087354  0.44960331    -0.09900
C566        C  0.00657762  0.25730957  0.43693685    -0.03800
C567        C  0.00834237  0.28335400  0.44750164    -0.09900
C568        C  0.00269481  0.28274718  0.47159912     0.11000
C569        C  0.99583036  0.25580580  0.48481836    -0.01700
C570        C  0.99508249  0.22981468  0.47386988     0.10800
C571        C  0.98755029  0.20329280  0.48731076    -0.11700
C572        C  0.48043056  0.19700910  0.51141875    -0.11700
C573        C  0.48105533  0.22226968  0.52282909     0.10800
C574        C  0.48852112  0.24945729  0.50969483    -0.01700
C575        C  0.00238298  0.30774781  0.48262460    -0.11900
C576        C  0.49576355  0.30164337  0.50739014    -0.11900
C577        C  0.48869319  0.27509234  0.52056354     0.11000
C578        C  0.48173454  0.27358937  0.54438832    -0.09900
C579        C  0.47418873  0.24670549  0.55710402    -0.03800
C580        C  0.47341555  0.22090929  0.54681147    -0.09900
H581        H  0.98634941  0.18298605  0.47948871     0.08300
H582        H  0.47453351  0.17582314  0.52074924     0.08300
H583        H  0.00664582  0.32828654  0.47312088     0.08500
H584        H  0.49621883  0.32163302  0.51519867     0.08500
H585        H  0.01059823  0.25791135  0.41834461     0.04900
H586        H  0.46838240  0.24572348  0.57540508     0.04900
C587        C  0.20167162  0.25313814  0.46695393    -0.09900
C588        C  0.21881759  0.28422966  0.45998682    -0.03800
C589        C  0.24986722  0.30286204  0.46619581    -0.09900
C590        C  0.26191167  0.29310781  0.48429147     0.11000
C591        C  0.24356203  0.26264696  0.49367660    -0.01700
C592        C  0.21336309  0.24233482  0.48482167     0.10800
C593        C  0.19623999  0.21190427  0.49374095    -0.11700
C594        C  0.20837670  0.20162418  0.51120502    -0.11700
C595        C  0.23850760  0.22108081  0.51973743     0.10800
C596        C  0.25625887  0.25191974  0.51088742    -0.01700
C597        C  0.29190006  0.31268025  0.49286736    -0.11900
C598        C  0.30359384  0.30277278  0.51076421    -0.11900
C599        C  0.28631997  0.27244388  0.51981684     0.11000
C600        C  0.29869346  0.26182044  0.53716780    -0.09900
C601        C  0.28255800  0.23048219  0.54338716    -0.03800
C602        C  0.25157281  0.21096107  0.53703151    -0.09900
H603        H  0.17315638  0.19594950  0.48746035     0.08300
H604        H  0.19420455  0.17806506  0.51760706     0.08300
H605        H  0.30626300  0.33603236  0.48606697     0.08500
H606        H  0.32677340  0.31868561  0.51693376     0.08500
H607        H  0.20983679  0.29240003  0.44625131     0.04900
H608        H  0.29216257  0.22211130  0.55645931     0.04900
C609        C  0.22324153  0.46032173  0.45231291    -0.09900
C610        C  0.24866762  0.45605851  0.44729000    -0.03800
C611        C  0.27399401  0.46621653  0.46217503    -0.09900
C612        C  0.27377516  0.48038594  0.48337443     0.11000
C613        C  0.24757954  0.48360592  0.48940515    -0.01700
C614        C  0.22263053  0.47421323  0.47360478     0.10800
C615        C  0.19818374  0.47983637  0.47928241    -0.11700
C616        C  0.19655439  0.98096663  0.51133398    -0.11700
C617        C  0.22387675  0.99352030  0.52438481     0.10800
C618        C  0.25035281  0.99258914  0.51527599    -0.01700
C619        C  0.29892967  0.49158513  0.49860456    -0.11900
C620        C  0.30447561  0.00467103  0.51854841    -0.11900
C621        C  0.27865956  0.00600513  0.52778248     0.11000
C622        C  0.28046940  0.02080493  0.54904753    -0.09900
C623        C  0.25409822  0.02107414  0.55790242    -0.03800
C624        C  0.22570255  0.00715657  0.54627427    -0.09900
H625        H  0.17982875  0.47525932  0.46728473     0.08300
H626        H  0.17613614  0.98160840  0.51768727     0.08300
H627        H  0.31965804  0.49030641  0.49420272     0.08500
H628        H  0.32660155  0.01520477  0.52729843     0.08500
H629        H  0.24885272  0.44448081  0.43144493     0.04900
H630        H  0.25543239  0.03156246  0.57462553     0.04900
O631        O  0.01161817  0.46348069  0.02438015    -0.87400
C632        C  0.05906454  0.02102040  0.96925975     0.88600
Mg633      Mg  0.46152168  0.42859404  0.01897673     1.58100
O634        O  0.04078492  0.05526830  0.01615607    -0.87200
O635        O  0.04142069  0.99939232  0.04478291    -0.74500
C636        C  0.39481310  0.50640434  0.98014719     0.93600
O637        O  0.00126120  0.45002301  0.96949641    -0.74300
O638        O  0.39275639  0.48005931  0.97714430    -0.81800
Mg639      Mg  0.04061061  0.46352769  0.99546653     1.58000
C640        C  0.00557168  0.11561917  0.99778016     0.93600
O641        O  0.08441151  0.47304746  0.01550527    -0.80100
H642        H  0.04344877  0.06676951  0.04952628    -0.05400
C643        C  0.48286455  0.03194580  0.95968404     0.88500
O644        O  0.44699678  0.46053218  0.03687669    -0.74600
O645        O  0.05405331  0.01097222  0.98933065    -0.87400
O646        O  0.02954465  0.11302196  0.99328355    -0.80200
C647        C  0.11541011  0.10708971  0.99309342     0.93700
C648        C  0.10747114  0.99566937  0.01779884     0.93500
Mg649      Mg  0.46561616  0.04458767  0.00789029     1.58000
O650        O  0.42172251  0.03556051  0.98817026    -0.80100
O651        O  0.50538092  0.05755074  0.03338573    -0.74300
O652        O  0.11229283  0.08234777  0.00208042    -0.80200
O653        O  0.02370598  0.41304274  0.00179790    -0.81900
O654        O  0.38945681  0.41878698  0.99700348    -0.80200
C655        C  0.02956532  0.05951551  0.03407806     0.88000
O656        O  0.44686459  0.49136190  0.01012427    -0.87300
O657        O  0.49346455  0.04317291  0.97870206    -0.87400
O658        O  0.46121346  0.50293764  0.95516908    -0.74500
Mg659      Mg  0.07393800  0.03878160  0.01999583     1.58000
O660        O  0.09244536  0.10923247  0.98548629    -0.81900
H661        H  0.01096094  0.45950544  0.05887589    -0.05600
O662        O  0.46129804  0.44705992  0.98438267    -0.87100
H663        H  0.45855935  0.43459263  0.95125236    -0.05400
H664        H  0.43317227  0.49210147  0.04273790    -0.05600
C665        C  0.47249013  0.44237037  0.96665626     0.87900
C666        C  0.02190644  0.47381077  0.04364893     0.88500
C667        C  0.44154584  0.48161835  0.03026683     0.88600
H668        H  0.49378154  0.04544499  0.94412826    -0.05600
O669        O  0.05411097  0.04264658  0.96319107    -0.74600
Mg670      Mg  0.42807711  0.46316942  0.97958190     1.58000
H671        H  0.06684110  0.01045086  0.95641021    -0.05600
C672        C  0.49791952  0.38860172  0.00559691     0.93600
O673        O  0.40978109  0.39348319  0.01537865    -0.81800
C674        C  0.38669935  0.39457139  0.00678306     0.93600
O675        O  0.10933263  0.02176080  0.02167075    -0.81800
Mg676      Mg  0.04053874  0.07474023  0.98205917     1.58200
O677        O  0.47345189  0.39047623  0.00967016    -0.80200
O678        O  0.48406320  0.09566336  0.00151463    -0.81800
O679        O  0.31883519  0.20679980  0.35266684    -0.87400
C680        C  0.28149637  0.14255582  0.30057060     0.88600
Mg681      Mg  0.36723418  0.24402108  0.35010005     1.58100
O682        O  0.29706289  0.11564673  0.35251285    -0.87200
O683        O  0.28527857  0.16766783  0.37423425    -0.74500
C684        C  0.44848657  0.17578808  0.32910714     0.93600
O685        O  0.33555006  0.21741642  0.29799980    -0.74300
O686        O  0.44955399  0.20168606  0.32796482    -0.81800
Mg687      Mg  0.29218352  0.20117670  0.32215582     1.58000
C688        C  0.33984657  0.06098489  0.34477287     0.93600
O689        O  0.24542898  0.18644647  0.34202717    -0.80100
H690        H  0.28992797  0.10532148  0.38638485    -0.05400
C691        C  0.36366681  0.14196221  0.30097668     0.88500
O692        O  0.38184056  0.21655398  0.37456572    -0.74600
O693        O  0.28231715  0.15370044  0.31981842    -0.87400
O694        O  0.31466882  0.06167605  0.34266674    -0.80200
C695        C  0.22849349  0.05599805  0.32752249     0.93700
C696        C  0.22002610  0.16043596  0.34340518     0.93500
Mg697      Mg  0.37727968  0.13589762  0.35036638     1.58000
O698        O  0.42275866  0.15016986  0.32953216    -0.80100
O699        O  0.33418458  0.11954843  0.37475765    -0.74300
O700        O  0.22810676  0.08120920  0.32967953    -0.80200
O701        O  0.30302811  0.25131323  0.32572618    -0.81900
O702        O  0.44175854  0.25508940  0.34434720    -0.80200
C703        C  0.30610890  0.11302781  0.37176938     0.88000
O704        O  0.38718614  0.18341515  0.35296735    -0.87300
O705        O  0.35112246  0.13145633  0.32009085    -0.87400
O706        O  0.38499121  0.17017377  0.29839793    -0.74500
Mg707      Mg  0.25944988  0.12558854  0.34993941     1.58000
O708        O  0.25377168  0.05537207  0.32605191    -0.81900
H709        H  0.31392341  0.21082139  0.38673841    -0.05600
O710        O  0.37301373  0.22202067  0.32017194    -0.87100
H711        H  0.37974265  0.23165665  0.28619522    -0.05400
H712        H  0.39467807  0.18635213  0.38707565    -0.05600
C713        C  0.36370903  0.22416182  0.30090369     0.87900
C714        C  0.30644317  0.19597922  0.37176853     0.88500
C715        C  0.38825937  0.19491360  0.37210949     0.88600
H716        H  0.35614464  0.12694898  0.28610171    -0.05600
O717        O  0.28868549  0.12152050  0.29781805    -0.74600
Mg718      Mg  0.41051756  0.21171211  0.32310565     1.58000
H719        H  0.27487401  0.15112246  0.28571789    -0.05600
C720        C  0.32902233  0.27645186  0.32727581     0.93600
O721        O  0.41799172  0.28283830  0.34502452    -0.81800
C722        C  0.44281309  0.28110350  0.34431094     0.93600
O723        O  0.21980905  0.13498721  0.34535209    -0.81800
Mg724      Mg  0.30334547  0.09433900  0.32225220     1.58200
O725        O  0.35463354  0.27663146  0.33013642    -0.80200
O726        O  0.36624129  0.08568218  0.34618313    -0.81800
O727        O  0.15064491  0.36575455  0.68930997    -0.87400
C728        C  0.10959430  0.30757911  0.63513295     0.88600
Mg729      Mg  0.19814978  0.40333395  0.68808438     1.58100
O730        O  0.12872429  0.27570581  0.68284581    -0.87200
O731        O  0.11809974  0.32564509  0.71033804    -0.74500
C732        C  0.28108726  0.34050088  0.65343661     0.93600
O733        O  0.16411439  0.38153099  0.63525183    -0.74300
O734        O  0.28208569  0.36653197  0.65422383    -0.81800
Mg735      Mg  0.12227267  0.36375541  0.66107066     1.58000
C736        C  0.17234507  0.22430693  0.66842507     0.93600
O737        O  0.07756490  0.34771856  0.68413758    -0.80100
H738        H  0.12529792  0.26415029  0.71641583    -0.05400
C739        C  0.19375334  0.30850986  0.62918799     0.88500
O740        O  0.21432647  0.37421075  0.70842305    -0.74600
O741        O  0.11132545  0.31632652  0.65533940    -0.87400
O742        O  0.14718654  0.22488359  0.66565128    -0.80200
C743        C  0.05884787  0.21785703  0.65657692     0.93700
C744        C  0.05194195  0.32185087  0.68458618     0.93500
Mg745      Mg  0.21054415  0.29894028  0.67637674     1.58000
O746        O  0.25517637  0.31496423  0.65311644    -0.80100
O747        O  0.16876074  0.28071900  0.70225537    -0.74300
O748        O  0.05883854  0.24143353  0.66507352    -0.80200
O749        O  0.13447074  0.41436538  0.66703006    -0.81900
O750        O  0.27373612  0.42182861  0.67283738    -0.80200
C751        C  0.14004842  0.27290867  0.70103637     0.88000
O752        O  0.22134711  0.34626011  0.68244273    -0.87300
O753        O  0.18189178  0.29662031  0.64815916    -0.87400
O754        O  0.21523036  0.33674358  0.62747786    -0.74500
Mg755      Mg  0.09107543  0.28568165  0.68484907     1.58000
O756        O  0.08390772  0.21826659  0.65061192    -0.81900
H757        H  0.14752423  0.36793862  0.72375852    -0.05600
O758        O  0.20409572  0.38650917  0.65474191    -0.87100
H759        H  0.20749372  0.39760001  0.62107018    -0.05400
H760        H  0.23054913  0.34490847  0.71591209    -0.05600
C761        C  0.19277480  0.38913003  0.63648469     0.87900
C762        C  0.13918796  0.35397171  0.70838851     0.88500
C763        C  0.22273707  0.35478924  0.70268668     0.88600
H764        H  0.18562745  0.29468185  0.61372782    -0.05600
O765        O  0.11773402  0.28795561  0.62939803    -0.74600
Mg766      Mg  0.24205137  0.37693149  0.65305914     1.58000
H767        H  0.10168092  0.31740022  0.62194492    -0.05600
C768        C  0.16137620  0.43859979  0.66810688     0.93600
O769        O  0.24745903  0.44375634  0.68732046    -0.81800
C770        C  0.27282258  0.44503613  0.68127975     0.93600
O771        O  0.05132408  0.29602297  0.68420667    -0.81800
Mg772      Mg  0.13408974  0.25873321  0.64945810     1.58200
O773        O  0.18595193  0.43715082  0.67122076    -0.80200
O774        O  0.19879154  0.24893949  0.66997632    -0.81800
C775        C  0.32808941  0.36102778  0.76600051    -0.15500
C776        C  0.34647763  0.34846475  0.76661457    -0.30700
H777        H  0.31634581  0.35983810  0.74993378     0.13500
H778        H  0.36030828  0.35167706  0.78189564     0.14100
C779        C  0.34155024  0.27512593  0.56468376    -0.15500
C780        C  0.32311052  0.28329592  0.55332080    -0.30700
H781        H  0.34463829  0.25621533  0.55846246     0.13500
H782        H  0.32224378  0.30376264  0.55876621     0.14100
C783        C  0.47868650  0.29820597  0.55631198    -0.15500
C784        C  0.49375644  0.31012410  0.57607987    -0.30700
H785        H  0.45955646  0.30168558  0.55118013     0.13500
H786        H  0.51261858  0.30601344  0.58085732     0.14100
C787        C  0.38805144  0.48356687  0.76063289    -0.15500
C788        C  0.35959631  0.47046603  0.77118748    -0.30700
H789        H  0.40594282  0.97493724  0.76721640     0.13500
H790        H  0.34404782  0.47962947  0.76815111     0.14100
C791        C  0.30899430  0.03589428  0.56323679    -0.15500
C792        C  0.31984655  0.01921512  0.57389127    -0.30700
H793        H  0.31705830  0.05958399  0.56864910     0.13500
H794        H  0.30918773  0.99455901  0.57040194     0.14100
C795        C  0.46524020  0.19358600  0.56212429    -0.15500
C796        C  0.43988270  0.18165075  0.57641744    -0.30700
H797        H  0.48089678  0.18415476  0.56242098     0.13500
H798        H  0.42299043  0.18946066  0.57479896     0.14100
C799        C  0.01234795  0.38943566  0.78259769    -0.15500
C800        C  0.99251793  0.39375766  0.76983694    -0.30700
H801        H  0.01472372  0.36908042  0.77985142     0.13500
H802        H  0.48557924  0.41007524  0.77358749     0.14100
C803        C  0.02932731  0.15746875  0.77024263    -0.15500
C804        C  0.00416237  0.13039484  0.76478100    -0.30700
H805        H  0.03458877  0.17866577  0.76107060     0.13500
H806        H  0.50225528  0.11616892  0.77954611     0.14100
C807        C  0.10069865  0.48697006  0.75708755    -0.15500
C808        C  0.10210613  0.49214195  0.78020875    -0.30700
H809        H  0.07861334  0.95069142  0.75037914     0.13500
H810        H  0.11766978  0.51506572  0.78692045     0.14100
C811        C  0.13893718  0.14123046  0.76648779    -0.15500
C812        C  0.10994717  0.12716576  0.77587864    -0.30700
H813        H  0.15349784  0.16622243  0.76814558     0.13500
H814        H  0.09394390  0.10312912  0.77147464     0.14100
C815        C  0.19284176  0.02904215  0.55911023    -0.15500
C816        C  0.19849799  0.00519535  0.55931835    -0.30700
H817        H  0.20246601  0.04577378  0.54490003     0.13500
H818        H  0.19000923  0.98914402  0.57397492     0.14100
C819        C  0.23611649  0.18808993  0.57562711    -0.15500
C820        C  0.23275460  0.18360502  0.55255435    -0.30700
H821        H  0.25060649  0.21155197  0.58196561     0.13500
H822        H  0.21640981  0.16106346  0.54561184     0.14100
C823        C  0.02583084  0.34577684  0.90552077    -0.15500
C824        C  0.05349309  0.35476738  0.89461080    -0.30700
H825        H  0.01434221  0.35935524  0.90316013     0.13500
H826        H  0.06635021  0.34301156  0.89892051     0.14100
C827        C  0.07827506  0.24024411  0.90508710    -0.15500
C828        C  0.06704306  0.21710773  0.88958776    -0.30700
H829        H  0.10181520  0.25981275  0.90281025     0.13500
H830        H  0.04257825  0.19915053  0.89045758     0.14100
C831        C  0.32736315  0.35907657  0.89542548    -0.15500
C832        C  0.30793386  0.32845273  0.89737402    -0.30700
H833        H  0.34387105  0.37087764  0.90915614     0.13500
H834        H  0.28967639  0.31687739  0.88472690     0.14100
C835        C  0.16523079  0.21746024  0.88234849    -0.15500
C836        C  0.16101405  0.20485657  0.90355887    -0.30700
H837        H  0.18825449  0.23467374  0.87586247     0.13500
H838        H  0.13765925  0.18695012  0.90904164     0.14100
C839        C  0.15267422  0.47341551  0.90806784    -0.15500
C840        C  0.15086763  0.45438501  0.89097948    -0.30700
H841        H  0.13422167  0.47918875  0.90997228     0.13500
H842        H  0.16807565  0.44690367  0.88968522     0.14100
C843        C  0.30168803  0.44197633  0.89261218    -0.15500
C844        C  0.27374358  0.42887453  0.90391120    -0.30700
H845        H  0.31855628  0.46639359  0.89490618     0.13500
H846        H  0.25627866  0.40489577  0.90060464     0.14100
C847        C  0.44780738  0.29989692  0.11531905    -0.15500
C848        C  0.44060049  0.27308930  0.10467854    -0.30700
H849        H  0.46919968  0.32123358  0.11085019     0.13500
H850        H  0.42005614  0.25177433  0.11059741     0.14100
C851        C  0.34109114  0.27976382  0.11523782    -0.15500
C852        C  0.34505526  0.29244991  0.09409206    -0.30700
H853        H  0.31829302  0.26176361  0.12151468     0.13500
H854        H  0.36786745  0.31170658  0.08893951     0.14100
C855        C  0.29937671  0.46034866  0.45440928    -0.15500
C856        C  0.31934761  0.47860338  0.43762359    -0.30700
H857        H  0.29456398  0.43660025  0.45619307     0.13500
H858        H  0.32216475  0.50154050  0.43505367     0.14100
C859        C  0.27034783  0.31778249  0.42702743    -0.15500
C860        C  0.27020031  0.32697693  0.44896394    -0.30700
H861        H  0.25783437  0.29311793  0.42328583     0.13500
H862        H  0.28363263  0.35119923  0.45380997     0.14100
C863        C  0.34725497  0.36052999  0.22862402    -0.15500
C864        C  0.35563152  0.33896226  0.23219900    -0.30700
H865        H  0.35523989  0.37473078  0.21293907     0.13500
H866        H  0.34971185  0.32638060  0.24861828     0.14100
C867        C  0.03946569  0.33840452  0.43410034    -0.15500
C868        C  0.01464436  0.30966919  0.43189543    -0.30700
H869        H  0.05410842  0.34401479  0.44921304     0.13500
H870        H  0.00162052  0.30357779  0.41590891     0.14100
C871        C  0.19734933  0.44944472  0.43526310    -0.15500
C872        C  0.20306188  0.45346264  0.41224459    -0.30700
H873        H  0.17342245  0.43950390  0.44165092     0.13500
H874        H  0.22709421  0.46491421  0.40582201     0.14100
C875        C  0.47253012  0.38645659  0.25030099    -0.15500
C876        C  0.46586558  0.36576349  0.23313490    -0.30700
H877        H  0.95912260  0.40320453  0.25102573     0.13500
H878        H  0.48075637  0.35565130  0.23076999     0.14100
C879        C  0.48219203  0.13553098  0.09708750    -0.15500
C880        C  0.48757271  0.16470048  0.09986575    -0.30700
H881        H  0.49012708  0.12987807  0.08112532     0.13500
H882        H  0.47729190  0.16977628  0.11481047     0.14100
C883        C  0.35311782  0.04377649  0.09329452    -0.15500
C884        C  0.37934003  0.04178386  0.09365907    -0.30700
H885        H  0.34916207  0.05657314  0.10689981     0.13500
H886        H  0.38450877  0.03088676  0.07929104     0.14100
C887        C  0.39100126  0.01060772  0.21813480    -0.15500
C888        C  0.38835969  0.01932190  0.23989603    -0.30700
H889        H  0.37838980  0.98642276  0.21311062     0.13500
H890        H  0.40062590  0.04394450  0.24386396     0.14100
C891        C  0.16463156  0.14349769  0.10568241    -0.15500
C892        C  0.18796373  0.17285659  0.10373373    -0.30700
H893        H  0.14771286  0.13409436  0.09189762     0.13500
H894        H  0.20595317  0.18165724  0.11679295     0.14100
C895        C  0.19238702  0.06210174  0.09954664    -0.15500
C896        C  0.22250728  0.07597238  0.09209739    -0.30700
H897        H  0.17569574  0.03877682  0.09406393     0.13500
H898        H  0.23950189  0.09859828  0.09859856     0.14100
C899        C  0.14507088  0.00706667  0.23537357    -0.15500
C900        C  0.13094321  0.01196473  0.21754610    -0.30700
H901        H  0.16425726  0.51269576  0.22466921     0.13500
H902        H  0.10818578  0.99381781  0.21201484     0.14100
C903        C  0.02326282  0.19829699  0.43765143    -0.15500
C904        C  0.00052954  0.20556211  0.43575878    -0.30700
H905        H  0.03751376  0.20530362  0.45303369     0.13500
H906        H  0.98751861  0.19987186  0.41978303     0.14100
C907        C  0.18285810  0.23475262  0.42824438    -0.15500
C908        C  0.17617207  0.23231024  0.45120065    -0.30700
H909        H  0.20692574  0.24961125  0.42243010     0.13500
H910        H  0.15302004  0.21589696  0.45796506     0.14100
C911        C  0.48375372  0.10247398  0.24252144    -0.15500
C912        C  0.49254051  0.10088704  0.22048583    -0.30700
H913        H  0.45896686  0.09141410  0.24695909     0.13500
H914        H  0.51700337  0.11327493  0.21513600     0.14100
C915        C  0.15424110  0.11837757  0.23355849    -0.15500
C916        C  0.13587488  0.13111339  0.23343857    -0.30700
H917        H  0.16576747  0.11866537  0.24952126     0.13500
H918        H  0.12185113  0.12820525  0.21833064     0.14100
O919        O  0.08474801  0.70672003  0.36672259    -0.87400
C920        C  0.10553138  0.63683041  0.36779059     0.88600
Mg921      Mg  0.04003323  0.69865768  0.35594387     1.58100
O922        O  0.13872605  0.68771426  0.31958307    -0.87200
O923        O  0.13304581  0.73484849  0.35419171    -0.74500
C924        C  0.00716032  0.61816902  0.25920602     0.93600
O925        O  0.03878162  0.63455887  0.37931915    -0.74300
O926        O  0.49371228  0.61772053  0.27700889    -0.81800
Mg927      Mg  0.08478195  0.67497419  0.39241539     1.58000
C928        C  0.13077711  0.64805548  0.25341399     0.93600
O929        O  0.12916506  0.71092685  0.41116547    -0.80100
H930        H  0.16710954  0.73009629  0.30642044    -0.05400
C931        C  0.05849896  0.60723547  0.30695365     0.88500
O932        O  0.05863624  0.71568081  0.31903256    -0.74600
O933        O  0.11200487  0.66422997  0.36838190    -0.87400
O934        O  0.14288219  0.64856443  0.27302863    -0.80200
C935        C  0.19036027  0.66295269  0.34083810     0.93700
C936        C  0.15857874  0.72221531  0.40866887     0.93500
Mg937      Mg  0.08065746  0.66492062  0.27601917     1.58000
O938        O  0.03653274  0.62921402  0.25706723    -0.80100
O939        O  0.12698237  0.70506811  0.28879069    -0.74300
O940        O  0.18424969  0.67958457  0.35424863    -0.80200
O941        O  0.05601970  0.68696022  0.41696686    -0.81900
O942        O  0.48254541  0.65880548  0.31214218    -0.80200
C943        C  0.14544570  0.70834121  0.30495872     0.88000
O944        O  0.05394930  0.67561358  0.30001946    -0.87300
O945        O  0.08089066  0.63277010  0.30142796    -0.87400
O946        O  0.03240250  0.60419717  0.31322242    -0.74500
Mg947      Mg  0.15443235  0.70330202  0.35408345     1.58000
O948        O  0.17319054  0.64849355  0.32374406    -0.81900
H949        H  0.10404322  0.75209574  0.35994301    -0.05600
O950        O  0.02750090  0.65146890  0.34804044    -0.87100
H951        H  0.99926242  0.60901375  0.36114203    -0.05400
H952        H  0.06932259  0.71700782  0.28483498    -0.05600
C953        C  0.02070010  0.63091768  0.36276037     0.87900
C954        C  0.10710464  0.73204346  0.36068222     0.88500
C955        C  0.06057529  0.70306463  0.30048199     0.88600
H956        H  0.06160088  0.58720678  0.30735599    -0.05600
O957        O  0.10778678  0.62444317  0.34919431    -0.74600
Mg958      Mg  0.01147935  0.63613271  0.31368903     1.58000
H959        H  0.09684040  0.62277090  0.38337993    -0.05600
C960        C  0.03166941  0.68906599  0.41381914     0.93600
O961        O  0.49391489  0.69027670  0.34236846    -0.81800
C962        C  0.47681278  0.67585190  0.32528838     0.93600
O963        O  0.17107742  0.71998490  0.38992015    -0.81800
Mg964      Mg  0.12566477  0.64032723  0.31183617     1.58200
O965        O  0.02065637  0.68768183  0.39367373    -0.80200
O966        O  0.10792738  0.65275453  0.25141694    -0.81800
C967        C  0.15452103  0.60098530  0.21548284    -0.09900
C968        C  0.14287379  0.57051420  0.22355905    -0.03800
C969        C  0.14098896  0.54712252  0.20914134    -0.09900
C970        C  0.15366263  0.55482240  0.18646440     0.11000
C971        C  0.16295832  0.58479601  0.17736133    -0.01700
C972        C  0.16225761  0.60772936  0.19158288     0.10800
C973        C  0.16928980  0.63631469  0.18137201    -0.11700
C974        C  0.17414153  0.64109578  0.15742956    -0.11700
C975        C  0.17627697  0.61917476  0.14341202     0.10800
C976        C  0.17265421  0.59169616  0.15384602    -0.01700
C977        C  0.15704424  0.53346053  0.17259910    -0.11900
C978        C  0.17034412  0.54180462  0.15040687    -0.11900
C979        C  0.17789016  0.57068519  0.14061953     0.11000
C980        C  0.19038402  0.57930942  0.11791103    -0.09900
C981        C  0.19080094  0.60470813  0.10720198    -0.03800
C982        C  0.18181098  0.62344151  0.11920905    -0.09900
H983        H  0.17012071  0.65489193  0.19152999     0.08300
H984        H  0.17756056  0.66266890  0.15019111     0.08300
H985        H  0.15041679  0.51050647  0.17908213     0.08500
H986        H  0.17360183  0.52502085  0.14069449     0.08500
H987        H  0.13463495  0.56473171  0.24140887     0.04900
H988        H  0.19679995  0.60907220  0.08887866     0.04900
C989        C  0.47131851  0.57572809  0.20104374    -0.09900
C990        C  0.44924738  0.54681585  0.20997666    -0.03800
C991        C  0.42024558  0.52922250  0.19987871    -0.09900
C992        C  0.41598084  0.53638607  0.17701265     0.11000
C993        C  0.44005325  0.56381348  0.16607051    -0.01700
C994        C  0.46743941  0.58419928  0.17844712     0.10800
C995        C  0.48978813  0.61228629  0.16797272    -0.11700
C996        C  0.48613370  0.61968122  0.14533540    -0.11700
C997        C  0.45986163  0.59938018  0.13248635     0.10800
C998        C  0.43630295  0.57135775  0.14305343    -0.01700
C999        C  0.38869185  0.51714005  0.16483656    -0.11900
C1000       C  0.38564581  0.52381519  0.14181571    -0.11900
C1001       C  0.40924943  0.55063279  0.13054549     0.11000
C1002       C  0.40706815  0.55712481  0.10695871    -0.09900
C1003       C  0.43105182  0.58425239  0.09664038    -0.03800
C1004       C  0.45679379  0.60584245  0.10912753    -0.09900
H1005       H  0.51060345  0.62849326  0.17702708     0.08300
H1006       H  0.50438072  0.64126250  0.13783138     0.08300
H1007       H  0.36997618  0.49621654  0.17279892     0.08500
H1008       H  0.36467505  0.50769552  0.13287249     0.08500
H1009       H  0.45302530  0.53970111  0.22685935     0.04900
H1010       H  0.42932184  0.58900154  0.07852164     0.04900
O1011       O  0.08200163  0.95017916  0.30239180    -0.87400
C1012       C  0.05403701  0.85923455  0.30301761     0.88600
Mg1013     Mg  0.12955566  0.98468291  0.30759316     1.58100
O1014       O  0.03423529  0.88886853  0.35217876    -0.87200
O1015       O  0.03544321  0.93722465  0.31522150    -0.74500
C1016       C  0.17596274  0.94392964  0.40141578     0.93600
O1017       O  0.12077000  0.91869693  0.28550795    -0.74300
O1018       O  0.18609288  0.95714530  0.38176991    -0.81800
Mg1019     Mg  0.07473188  0.91748792  0.27601464     1.58000
C1020       C  0.04640047  0.85800933  0.41689860     0.93600
O1021       O  0.02869681  0.91288840  0.26264497    -0.80100
H1022       H  0.01252891  0.90915993  0.36744582    -0.05400
C1023       C  0.11187171  0.87989861  0.36030356     0.88500
O1024       O  0.11867041  0.99038157  0.34552859    -0.74600
O1025       O  0.04872083  0.88102588  0.30181325    -0.87400
O1026       O  0.03068811  0.85225380  0.39849783    -0.80200
C1027       C  0.47336352  0.81132032  0.34040336     0.93700
C1028       C  0.99939024  0.89538422  0.26633429     0.93500
Mg1029     Mg  0.09988540  0.92100535  0.39177710     1.58000
O1030       O  0.14673747  0.92713679  0.40614291    -0.80100
O1031       O  0.05350325  0.91901841  0.38225485    -0.74300
O1032       O  0.47759806  0.83222045  0.32561645    -0.80200
O1033       O  0.10160127  0.95851414  0.24966951    -0.81900
O1034       O  0.19321732  0.50695020  0.33616965    -0.80200
C1035       C  0.03240365  0.90559650  0.36721396     0.88000
O1036       O  0.12514869  0.95656083  0.36572291    -0.87300
O1037       O  0.09206452  0.88694442  0.36592327    -0.87400
O1038       O  0.13849087  0.90016849  0.35251773    -0.74500
Mg1039     Mg  0.01113543  0.88441131  0.31983081     1.58000
O1040       O  0.49433937  0.81498119  0.35453765    -0.81900
H1041       H  0.06818263  0.98144807  0.30654999    -0.05600
O1042       O  0.13921078  0.94826454  0.31596938    -0.87100
H1043       H  0.16128097  0.92815692  0.30093537    -0.05400
H1044       H  0.11482210  0.98668838  0.38058987    -0.05600
C1045       C  0.14141695  0.93176170  0.30091048     0.87900
C1046       C  0.06226870  0.95740631  0.30775821     0.88500
C1047       C  0.11979860  0.97836210  0.36471896     0.88600
H1048       H  0.10617664  0.85594381  0.36152728    -0.05600
O1049       O  0.05467653  0.84712255  0.32229537    -0.74600
Mg1050     Mg  0.16248301  0.95295880  0.34781427     1.58000
H1051       H  0.05923840  0.85086044  0.28724507    -0.05600
C1052       C  0.12939370  0.98098816  0.25216416     0.93600
O1053       O  0.17708866  0.52480053  0.30728398    -0.81800
C1054       C  0.19726131  0.52838328  0.32207134     0.93600
O1055       O  0.48612842  0.87967563  0.28482210    -0.81800
Mg1056     Mg  0.04397860  0.85235244  0.36047152     1.58200
O1057       O  0.14427131  0.98324727  0.27037706    -0.80200
O1058       O  0.07358133  0.88169578  0.41839374    -0.81800
O1059       O  0.36034192  0.92026976  0.29816173    -0.87400
C1060       C  0.29653757  0.94735523  0.31164262     0.88600
Mg1061     Mg  0.35038455  0.87366707  0.30451599     1.58100
O1062       O  0.35893378  0.97156532  0.35072110    -0.87200
O1063       O  0.39560638  0.96757022  0.30600865    -0.74500
C1064       C  0.28930158  0.83705634  0.41107702     0.93600
O1065       O  0.28672584  0.87915391  0.29362538    -0.74300
O1066       O  0.28840726  0.82482725  0.39154391    -0.81800
Mg1067     Mg  0.32687299  0.92476077  0.27780993     1.58000
C1068       C  0.33075084  0.96324141  0.42088950     0.93600
O1069       O  0.36166194  0.96906280  0.25760945    -0.80100
H1070       H  0.40426625  0.99523558  0.35854091    -0.05400
C1071       C  0.27729417  0.89541959  0.37159449     0.88500
O1072       O  0.37640387  0.88804391  0.33908381    -0.74600
O1073       O  0.32272023  0.95184676  0.30581205    -0.87400
O1074       O  0.33994948  0.97899689  0.40219193    -0.80200
C1075       C  0.33627491  0.53129739  0.33833885     0.93700
C1076       C  0.37404853  0.99828275  0.25999768     0.93500
Mg1077     Mg  0.33794748  0.91065673  0.39373631     1.58000
O1078       O  0.30210230  0.86631200  0.41353355    -0.80100
O1079       O  0.37864057  0.95608297  0.37795001    -0.74300
O1080       O  0.34810658  0.52425579  0.32126017    -0.80200
O1081       O  0.33631197  0.89854475  0.24923961    -0.81900
O1082       O  0.31763264  0.81284355  0.34534615    -0.80200
C1083       C  0.38151465  0.97528780  0.36214538     0.88000
O1084       O  0.34240925  0.88389359  0.36587760    -0.87300
O1085       O  0.30491905  0.91576072  0.37314362    -0.87400
O1086       O  0.26986046  0.86852750  0.36460345    -0.74500
Mg1087     Mg  0.36744600  0.99106985  0.31625762     1.58000
O1088       O  0.32347687  0.51317927  0.35560926    -0.81900
H1089       H  0.40601257  0.93525405  0.29437230    -0.05600
O1090       O  0.30702119  0.86414764  0.32070113    -0.87100
H1091       H  0.26173839  0.83972254  0.31284965    -0.05400
H1092       H  0.38647790  0.89600525  0.37320031    -0.05600
C1093       C  0.28429448  0.85998446  0.30928081     0.87900
C1094       C  0.38799627  0.94065078  0.29905355     0.88500
C1095       C  0.36891484  0.88924109  0.36009714     0.88600
H1096       H  0.25912698  0.90083060  0.37576646    -0.05600
O1097       O  0.28949670  0.94922576  0.33265690    -0.74600
Mg1098     Mg  0.29807029  0.84477098  0.35504435     1.58000
H1099       H  0.27894126  0.94097377  0.29860678    -0.05600
C1100       C  0.33509932  0.87244258  0.25078902     0.93600
O1101       O  0.34130385  0.82498516  0.31062378    -0.81800
C1102       C  0.32972060  0.80675032  0.32792189     0.93600
O1103       O  0.37710035  0.50986485  0.27613952    -0.81800
Mg1104     Mg  0.31592704  0.96293009  0.36718293     1.58200
O1105       O  0.32654633  0.85677917  0.26954164    -0.80200
O1106       O  0.32894436  0.93688619  0.42240734    -0.81800
C1107       C  0.44493885  0.87612723  0.21008869    -0.09900
C1108       C  0.42326934  0.88501707  0.21736014    -0.03800
C1109       C  0.39354942  0.87221290  0.20798913    -0.09900
C1110       C  0.38531786  0.85079201  0.18980229     0.11000
C1111       C  0.40782721  0.84354640  0.18059096    -0.01700
C1112       C  0.43797085  0.85660519  0.19044172     0.10800
C1113       C  0.45981679  0.84940016  0.18045172    -0.11700
C1114       C  0.45262708  0.83069265  0.16077251    -0.11700
C1115       C  0.42282169  0.81718733  0.15100413     0.10800
C1116       C  0.39996724  0.82300577  0.16155229    -0.01700
C1117       C  0.35544616  0.83705641  0.18022955    -0.11900
C1118       C  0.34748702  0.81623169  0.16218253    -0.11900
C1119       C  0.36939676  0.80907434  0.15259267     0.11000
C1120       C  0.36160465  0.78881239  0.13380377    -0.09900
C1121       C  0.38389557  0.78309811  0.12369645    -0.03800
C1122       C  0.41478280  0.79767436  0.13121711    -0.09900
H1123       H  0.48294643  0.85864855  0.18741127     0.08300
H1124       H  0.47039034  0.82628465  0.15355400     0.08300
H1125       H  0.33788728  0.84231640  0.18655909     0.08500
H1126       H  0.32400480  0.80596659  0.15561573     0.08500
H1127       H  0.42909108  0.90126523  0.23146273     0.04900
H1128       H  0.37754087  0.76936321  0.10806856     0.04900
O1129       O  0.25997402  0.50238084  0.95610166    -0.87400
C1130       C  0.18384819  0.95025617  0.99575582     0.88600
Mg1131     Mg  0.30369109  0.50332720  0.96014876     1.58100
O1132       O  0.22113003  0.52840129  0.00980262    -0.87200
O1133       O  0.24162457  0.53437449  0.95673098    -0.74500
C1134       C  0.33214195  0.52499615  0.07276730     0.93600
O1135       O  0.24274725  0.94105885  0.97855543    -0.74300
O1136       O  0.33744247  0.51281534  0.05511157    -0.81800
Mg1137     Mg  0.22044424  0.95943229  0.95277816     1.58000
C1138       C  0.23724325  0.55663865  0.07752141     0.93600
O1139       O  0.19261716  0.97004305  0.92510596    -0.80100
H1140       H  0.23584552  0.57216596  0.99990539    -0.05400
C1141       C  0.24488764  0.98232026  0.05032353     0.88500
O1142       O  0.32372447  0.54795450  0.98173073    -0.74600
O1143       O  0.19866568  0.97073189  0.98103190    -0.87400
O1144       O  0.21523199  0.53789515  0.06479004    -0.80200
C1145       C  0.13658674  0.99435610  0.01609161     0.93700
C1146       C  0.17092150  0.97703836  0.92568369     0.93500
Mg1147     Mg  0.28601885  0.54618867  0.04575988     1.58000
O1148       O  0.31062830  0.53209455  0.07308722    -0.80100
O1149       O  0.26577139  0.56712664  0.02072529    -0.74300
O1150       O  0.14517067  0.99000762  0.99609944    -0.80200
O1151       O  0.24349600  0.94599550  0.92350355    -0.81900
O1152       O  0.35739926  0.51226727  0.00169009    -0.80200
C1153       C  0.24032405  0.55645853  0.00993031     0.88000
O1154       O  0.30634008  0.53372542  0.01727611    -0.87300
O1155       O  0.24485417  0.00562414  0.04292452    -0.87400
O1156       O  0.26580404  0.97594532  0.04411573    -0.74500
Mg1157     Mg  0.19602256  0.51123105  0.97850850     1.58000
O1158       O  0.15373758  0.00046387  0.03362840    -0.81900
H1159       H  0.28058718  0.54262988  0.93854917    -0.05600
O1160       O  0.28567379  0.98108015  0.99062934    -0.87100
H1161       H  0.27245459  0.93771708  0.00075691    -0.05400
H1162       H  0.33517861  0.57809768  0.00836361    -0.05600
C1163       C  0.26751110  0.95278651  0.99034001     0.87900
C1164       C  0.26142800  0.52682652  0.94977048     0.88500
C1165       C  0.32239849  0.55423023  0.00289598     0.88600
H1166       H  0.22614054  0.96649723  0.06183265    -0.05600
O1167       O  0.18242816  0.95673274  0.01686327    -0.74600
Mg1168     Mg  0.31114853  0.00059214  0.02218662     1.58000
H1169       H  0.17235086  0.92621649  0.99064463    -0.05600
C1170       C  0.27151791  0.95131575  0.92166265     0.93600
O1171       O  0.34874747  0.50193053  0.96407605    -0.81800
C1172       C  0.36581936  0.50781270  0.98168049     0.93600
O1173       O  0.16639592  0.98994627  0.94316412    -0.81800
Mg1174     Mg  0.19991807  0.00158291  0.03786073     1.58200
O1175       O  0.29291293  0.97004845  0.93490679    -0.80200
O1176       O  0.26495650  0.56128881  0.07523895    -0.81800
O1177       O  0.25010263  0.73654761  0.96231916    -0.87400
C1178       C  0.26696846  0.82031544  0.98734721     0.88600
Mg1179     Mg  0.20748682  0.69406698  0.96909158     1.58100
O1180       O  0.30953902  0.78868859  0.01348231    -0.87200
O1181       O  0.30103477  0.75831498  0.96389195    -0.74500
C1182       C  0.19481674  0.69119107  0.08182493     0.93600
O1183       O  0.19976417  0.75839784  0.97332429    -0.74300
O1184       O  0.17741599  0.67788366  0.06461657    -0.81800
Mg1185     Mg  0.24392673  0.77398683  0.95033433     1.58000
C1186       C  0.31251377  0.78717916  0.08441084     0.93600
O1187       O  0.28556254  0.79085612  0.92506702    -0.80100
H1188       H  0.33999495  0.77333971  0.01116238    -0.05400
C1189       C  0.22846661  0.77124573  0.04707404     0.88500
O1190       O  0.23094539  0.67996391  0.99700837    -0.74600
O1191       O  0.27290771  0.80130578  0.97841459    -0.87400
O1192       O  0.31861225  0.80586572  0.06761591    -0.80200
C1193       C  0.35428231  0.87044841  0.01197707     0.93700
C1194       C  0.31070459  0.81688951  0.92494737     0.93500
Mg1195     Mg  0.25864004  0.73301363  0.05519687     1.58000
O1196       O  0.21728985  0.71872628  0.07990616    -0.80100
O1197       O  0.30306883  0.74798110  0.03296723    -0.74300
O1198       O  0.34336467  0.85817554  0.99241531    -0.80200
O1199       O  0.21256529  0.74592397  0.92034454    -0.81900
O1200       O  0.15997838  0.64839324  0.01406515    -0.80200
C1201       C  0.31867393  0.77051316  0.01897072     0.88000
O1202       O  0.23013828  0.70561204  0.02727938    -0.87300
O1203       O  0.25280056  0.77061555  0.04299843    -0.87400
O1204       O  0.20174183  0.74805421  0.04291564    -0.74500
Mg1205     Mg  0.31889659  0.80728733  0.97896959     1.58000
O1206       O  0.34133928  0.85711535  0.03097686    -0.81900
H1207       H  0.27297838  0.71505314  0.95137062    -0.05600
O1208       O  0.19327036  0.71802869  0.99332447    -0.87100
H1209       H  0.16344151  0.73411304  0.99588050    -0.05400
H1210       H  0.24745099  0.67684370  0.02833496    -0.05600
C1211       C  0.18441779  0.73641771  0.98782866     0.87900
C1212       C  0.27441251  0.73568176  0.95876321     0.88500
C1213       C  0.23651318  0.68697898  0.01818574     0.88600
H1214       H  0.22992100  0.79195180  0.05430633    -0.05600
O1215       O  0.27266763  0.82751860  0.00848174    -0.74600
Mg1216     Mg  0.18402629  0.69889733  0.02799827     1.58000
H1217       H  0.25638872  0.83071051  0.97707487    -0.05600
C1218       C  0.18834287  0.71917557  0.92196423     0.93600
O1219       O  0.16175621  0.65056957  0.97548247    -0.81800
C1220       C  0.14884304  0.63686690  0.99436190     0.93600
O1221       O  0.32683938  0.82768300  0.94304283    -0.81800
Mg1222     Mg  0.29534236  0.81332897  0.03700617     1.58200
O1223       O  0.18302800  0.70163571  0.93939330    -0.80200
O1224       O  0.28888472  0.76011355  0.08473555    -0.81800
O1225       O  0.00778981  0.76788554  0.04631944    -0.87400
C1226       C  0.45655427  0.68114755  0.01198290     0.88600
Mg1227     Mg  0.00123607  0.80668157  0.03744076     1.58100
O1228       O  0.03696203  0.72740536  0.99510844    -0.87200
O1229       O  0.04418624  0.75492278  0.04633375    -0.74500
C1230       C  0.01102238  0.81653969  0.92361511     0.93600
O1231       O  0.43340796  0.73161663  0.02637435    -0.74300
O1232       O  0.99615303  0.82030296  0.94023559    -0.81800
Mg1233     Mg  0.46229561  0.72079224  0.05162123     1.58000
C1234       C  0.05696434  0.73640708  0.92251720     0.93600
O1235       O  0.48353405  0.70440360  0.08010340    -0.80100
H1236       H  0.08247351  0.74964765  0.00232083    -0.05400
C1237       C  0.47074852  0.73206531  0.95362629     0.88500
O1238       O  0.04321481  0.82728744  0.01204605    -0.74600
O1239       O  0.47706634  0.70148435  0.02388654    -0.87400
O1240       O  0.04340833  0.71397340  0.93718120    -0.80200
C1241       C  0.50908894  0.64503415  0.99453271     0.93700
C1242       C  0.49247073  0.68440768  0.07987130     0.93500
Mg1243     Mg  0.04118192  0.78196054  0.95319545     1.58000
O1244       O  0.01975738  0.79647154  0.92455955    -0.80100
O1245       O  0.06995934  0.77186181  0.97897647    -0.74300
O1246       O  0.50734266  0.65713362  0.01346127    -0.80200
O1247       O  0.44649596  0.74094990  0.08043991    -0.81900
O1248       O  0.99544940  0.84581283  0.98857277    -0.83800
C1249       C  0.06387233  0.74926971  0.99242777     0.88000
O1250       O  0.02637973  0.80191552  0.97984564    -0.87300
O1251       O  0.49734201  0.73800709  0.95893791    -0.87400
O1252       O  0.46010031  0.74988138  0.95899862    -0.74500
Mg1253     Mg  0.02331320  0.70682553  0.02937075     1.58000
O1254       O  0.51232029  0.65834640  0.97488403    -0.81900
H1255       H  0.04958892  0.79471179  0.06031479    -0.05600
O1256       O  0.46549537  0.77669255  0.01057045    -0.87100
H1257       H  0.41990088  0.75367516  0.00365964    -0.05400
H1258       H  0.07012478  0.83705530  0.98288390    -0.05600
C1259       C  0.43885175  0.75433963  0.01325421     0.87900
C1260       C  0.03425476  0.77336594  0.05153750     0.88500
C1261       C  0.04741950  0.82279653  0.99101878     0.88600
H1262       H  0.45589198  0.71079487  0.94462051    -0.05600
O1263       O  0.46181271  0.67737074  0.99098295    -0.74600
Mg1264     Mg  0.47887332  0.79754518  0.97633667     1.58000
H1265       H  0.43349506  0.66651025  0.01950659    -0.05600
C1266       C  0.44677551  0.76643175  0.08327324     0.93600
O1267       O  0.99294234  0.84684272  0.02718687    -0.81800
C1268       C  0.99436288  0.85869191  0.00723011     0.93600
O1269       O  0.50644229  0.68122059  0.06236254    -0.81800
Mg1270     Mg  0.50450146  0.69929329  0.96591353     1.58200
O1271       O  0.45985261  0.78882324  0.06858199    -0.80200
O1272       O  0.05733289  0.76188146  0.92513811    -0.81800
O1273       O  0.20960020  0.58351868  0.63073342    -0.87400
C1274       C  0.14438912  0.60981719  0.62676009     0.88600
Mg1275     Mg  0.19681509  0.53697774  0.64014177     1.58100
O1276       O  0.19905933  0.64236745  0.67116656    -0.87200
O1277       O  0.24236966  0.63309415  0.63523876    -0.74500
C1278       C  0.11737429  0.50927819  0.73791566     0.93600
O1279       O  0.13770340  0.54248057  0.61501737    -0.74300
O1280       O  0.10819509  0.98722361  0.71746388    -0.81800
Mg1281     Mg  0.18286252  0.58688282  0.60331037     1.58000
C1282       C  0.16039768  0.64042233  0.73711287     0.93600
O1283       O  0.22670889  0.63010837  0.59150233    -0.80100
H1284       H  0.24259734  0.66360755  0.68318764    -0.05400
C1285       C  0.11292626  0.56576012  0.68961926     0.88500
O1286       O  0.21435302  0.55164429  0.67710732    -0.74600
O1287       O  0.17158686  0.61492242  0.62592634    -0.87400
O1288       O  0.16934209  0.65238089  0.71704015    -0.80200
C1289       C  0.17543927  0.69600530  0.65346409     0.93700
C1290       C  0.22303091  0.65087847  0.58199766     0.93500
Mg1291     Mg  0.16862993  0.58258757  0.71912108     1.58000
O1292       O  0.13048884  0.53874958  0.74036137    -0.80100
O1293       O  0.21169646  0.62619815  0.70252858    -0.74300
O1294       O  0.19048652  0.68997143  0.63803779    -0.80200
O1295       O  0.19394407  0.55736197  0.57830085    -0.81900
O1296       O  0.14386311  0.97412249  0.67724323    -0.80200
C1297       C  0.21872932  0.64496155  0.68539201     0.88000
O1298       O  0.17605553  0.55216209  0.69620051    -0.87300
O1299       O  0.14034700  0.58556402  0.69275353    -0.87400
O1300       O  0.10561840  0.53838471  0.68427420    -0.74500
Mg1301     Mg  0.21268010  0.65794913  0.63524009     1.58000
O1302       O  0.16156952  0.67809027  0.67052473    -0.81900
H1303       H  0.25543111  0.60018199  0.63486500    -0.05600
O1304       O  0.15053399  0.52989198  0.64781296    -0.87100
H1305       H  0.10809169  0.50443176  0.63429939    -0.05400
H1306       H  0.21568656  0.56089905  0.71142346    -0.05600
C1307       C  0.13117435  0.52456881  0.63255761     0.87900
C1308       C  0.23648607  0.60509328  0.63378756     0.88500
C1309       C  0.20229630  0.55481062  0.69573926     0.88600
H1310       H  0.09500553  0.57218386  0.69059228    -0.05600
O1311       O  0.13230394  0.61295480  0.64541602    -0.74600
Mg1312     Mg  0.13346770  0.51316890  0.68227634     1.58000
H1313       H  0.13029623  0.60165422  0.61144137    -0.05600
C1314       C  0.18540606  0.52918670  0.58287022     0.93600
O1315       O  0.17550094  0.98643077  0.64626211    -0.81800
C1316       C  0.15916405  0.96765837  0.66250996     0.93600
O1317       O  0.22151259  0.67082457  0.59493074    -0.81800
Mg1318     Mg  0.15215876  0.63124484  0.68146146     1.58200
O1319       O  0.18275986  0.51943948  0.60356181    -0.80200
O1320       O  0.15700101  0.61386574  0.74213366    -0.81800
C1321       C  0.13895441  0.71150245  0.86967328    -0.09900
C1322       C  0.11649728  0.71582235  0.88124795    -0.03800
C1323       C  0.08800389  0.70867518  0.87145765    -0.09900
C1324       C  0.08215872  0.69758451  0.84828865     0.11000
C1325       C  0.10460802  0.69239404  0.83630928    -0.01700
C1326       C  0.13290954  0.69899860  0.84721411     0.10800
C1327       C  0.15381674  0.69190336  0.83576264    -0.11700
C1328       C  0.14694841  0.67803347  0.81409757    -0.11700
C1329       C  0.11960801  0.67205044  0.80266664     0.10800
C1330       C  0.09863612  0.68014684  0.81350500    -0.01700
C1331       C  0.05513399  0.69214424  0.83654414    -0.11900
C1332       C  0.05035983  0.68215283  0.81347283    -0.11900
C1333       C  0.07166434  0.67576236  0.80168734     0.11000
C1334       C  0.06702750  0.66510653  0.77844226    -0.09900
C1335       C  0.08729359  0.65596798  0.76856568    -0.03800
C1336       C  0.11272147  0.65819037  0.78063296    -0.09900
H1337       H  0.17536020  0.69637406  0.84373288     0.08300
H1338       H  0.16357845  0.67253929  0.80614668     0.08300
H1339       H  0.03784649  0.69630704  0.84496379     0.08500
H1340       H  0.02950022  0.67886641  0.80504282     0.08500
H1341       H  0.12116016  0.72411130  0.89889076     0.04900
H1342       H  0.08286557  0.64641447  0.75125490     0.04900
C1343       C  0.11593651  0.92778303  0.87855584    -0.09900
C1344       C  0.09719508  0.89890548  0.88936858    -0.03800
C1345       C  0.06801288  0.87722782  0.88080097    -0.09900
C1346       C  0.05754002  0.88388085  0.86011305     0.11000
C1347       C  0.07614752  0.91310716  0.84884266    -0.01700
C1348       C  0.10544155  0.93523123  0.85807139     0.10800
C1349       C  0.12358519  0.96367671  0.84626074    -0.11700
C1350       C  0.11329214  0.97030042  0.82568348    -0.11700
C1351       C  0.08432910  0.94884102  0.81633616     0.10800
C1352       C  0.06568794  0.91986227  0.82799800    -0.01700
C1353       C  0.02960430  0.86163820  0.84994322    -0.11900
C1354       C  0.01972075  0.86800729  0.82930401    -0.11900
C1355       C  0.03726116  0.89693098  0.81818507     0.11000
C1356       C  0.02687472  0.90366096  0.79757350    -0.09900
C1357       C  0.04363766  0.93330628  0.78792973    -0.03800
C1358       C  0.07342550  0.95486521  0.79541136    -0.09900
H1359       H  0.14602546  0.98094266  0.85279805     0.08300
H1360       H  0.12818142  0.99245088  0.81722636     0.08300
H1361       H  0.01527920  0.83884803  0.85763842     0.08500
H1362       H  0.99788326  0.85020009  0.82228662     0.08500
H1363       H  0.10534885  0.89335792  0.90504696     0.04900
H1364       H  0.03507753  0.93853437  0.77235986     0.04900
O1365       O  0.40753020  0.57282389  0.70927840    -0.87400
C1366       C  0.48423870  0.59526760  0.66788216     0.88600
Mg1367     Mg  0.36301495  0.53169104  0.70414014     1.58100
O1368       O  0.44788025  0.63951525  0.65767011    -0.87200
O1369       O  0.42811561  0.62307949  0.71159043    -0.74500
C1370       C  0.33205682  0.52936387  0.59320043     0.93600
O1371       O  0.42700695  0.52636194  0.68464521    -0.74300
O1372       O  0.33102663  0.51094685  0.60897775    -0.81800
Mg1373     Mg  0.44775124  0.56608484  0.71071900     1.58000
C1374       C  0.43036387  0.65447345  0.58866276     0.93600
O1375       O  0.47303801  0.60292172  0.73878162    -0.80100
H1376       H  0.43377417  0.66863106  0.66880843    -0.05400
C1377       C  0.42294761  0.56705415  0.61298979     0.88500
O1378       O  0.34416374  0.55817236  0.68376766    -0.74600
O1379       O  0.46941363  0.60026073  0.68307294    -0.87400
O1380       O  0.45337333  0.65785037  0.60062431    -0.80200
C1381       C  0.02894877  0.68509929  0.65082164     0.93700
C1382       C  0.49476603  0.63117740  0.73982907     0.93500
Mg1383     Mg  0.38109384  0.59573180  0.62098870     1.58000
O1384       O  0.35120744  0.55857887  0.59376469    -0.80100
O1385       O  0.40375812  0.63553847  0.64703019    -0.74300
O1386       O  0.01913521  0.67343747  0.67106729    -0.80200
O1387       O  0.42493043  0.52916178  0.73972793    -0.81900
O1388       O  0.31288516  0.98526703  0.66099791    -0.80200
C1389       C  0.42903762  0.64896180  0.65814014     0.88000
O1390       O  0.36106548  0.56148108  0.64815416    -0.87300
O1391       O  0.42189594  0.58956611  0.62081544    -0.87400
O1392       O  0.40337225  0.53959540  0.61937604    -0.74500
Mg1393     Mg  0.47331084  0.64484258  0.68933062     1.58000
O1394       O  0.01291358  0.67344423  0.63274446    -0.81900
H1395       H  0.38848244  0.59228352  0.72897665    -0.05600
O1396       O  0.38353561  0.52318247  0.67323107    -0.87100
H1397       H  0.39722931  0.49353008  0.66261901    -0.05400
H1398       H  0.33263287  0.57750436  0.65750575    -0.05600
C1399       C  0.40200110  0.51325553  0.67320933     0.87900
C1400       C  0.40726266  0.59568246  0.71727418     0.88500
C1401       C  0.34516470  0.56587258  0.66270319     0.88600
H1402       H  0.44170230  0.57092287  0.60106338    -0.05600
O1403       O  0.48481438  0.60328364  0.64686161    -0.74600
Mg1404     Mg  0.35862553  0.51732291  0.64170993     1.58000
H1405       H  0.49639084  0.58304968  0.67249156    -0.05600
C1406       C  0.39675629  0.50720822  0.74220417     0.93600
O1407       O  0.31402368  0.98315163  0.69957396    -0.81800
C1408       C  0.30042146  0.97258976  0.68044394     0.93600
O1409       O  0.50089385  0.65024135  0.72297463    -0.81800
Mg1410     Mg  0.46662032  0.63049253  0.62602035     1.58200
O1411       O  0.37518620  0.50464709  0.72913203    -0.80200
O1412       O  0.40257017  0.63233019  0.59232149    -0.81800
O1413       O  0.40580856  0.85388886  0.69979216    -0.87400
C1414       C  0.42693722  0.78388063  0.70518414     0.88600
Mg1415     Mg  0.36348057  0.85038953  0.68715632     1.58100
O1416       O  0.46569880  0.83964577  0.66063156    -0.87200
O1417       O  0.45637685  0.88323227  0.69595066    -0.74500
C1418       C  0.34096927  0.77455092  0.59028069     0.93600
O1419       O  0.35818749  0.78207836  0.70863750    -0.74300
O1420       O  0.32651056  0.77984278  0.60634742    -0.81800
Mg1421     Mg  0.40193440  0.82103062  0.72551237     1.58000
C1422       C  0.46727458  0.80742765  0.59498042     0.93600
O1423       O  0.44234637  0.85771097  0.74609634    -0.80100
H1424       H  0.49336047  0.88342833  0.64975145    -0.05400
C1425       C  0.38455222  0.76091066  0.64228416     0.88500
O1426       O  0.38679101  0.86997879  0.65194264    -0.74600
O1427       O  0.43292156  0.81109713  0.70545561    -0.87400
O1428       O  0.47603740  0.80769216  0.61559222    -0.80200
C1429       C  0.01717053  0.81504363  0.68172097     0.93700
C1430       C  0.47119975  0.86752136  0.74903009     0.93500
Mg1431     Mg  0.41174211  0.81890959  0.61274073     1.58000
O1432       O  0.36959651  0.78188683  0.59179112    -0.80100
O1433       O  0.45585259  0.85842301  0.62944641    -0.74300
O1434       O  0.01044778  0.83059419  0.69595866    -0.80200
O1435       O  0.37149463  0.83277675  0.74707693    -0.81900
O1436       O  0.31085039  0.81878479  0.64122388    -0.80200
C1437       C  0.47270399  0.86124173  0.64675165     0.88000
O1438       O  0.38256639  0.82987501  0.63357226    -0.87300
O1439       O  0.40836169  0.78639367  0.63899084    -0.87400
O1440       O  0.35770948  0.75836013  0.64471490    -0.74500
Mg1441     Mg  0.47766126  0.85130842  0.69621941     1.58000
O1442       O  0.99928160  0.80016485  0.66517543    -0.81900
H1443       H  0.42652443  0.90011693  0.69769354    -0.05600
O1444       O  0.34841993  0.80285380  0.67854045    -0.87100
H1445       H  0.32011535  0.75883952  0.68859349    -0.05400
H1446       H  0.40068766  0.87168824  0.61848001    -0.05600
C1447       C  0.34107965  0.78062293  0.69189392     0.87900
C1448       C  0.42923363  0.87984279  0.69796674     0.88500
C1449       C  0.39003868  0.85753108  0.63380141     0.88600
H1450       H  0.38665782  0.74033366  0.64346737    -0.05600
O1451       O  0.43075840  0.77202993  0.68690667    -0.74600
Mg1452     Mg  0.33763695  0.79156817  0.64331832     1.58000
H1453       H  0.41725320  0.76959393  0.72059490    -0.05600
C1454       C  0.34878611  0.83711942  0.74300372     0.93600
O1455       O  0.31992223  0.84827828  0.67234545    -0.81800
C1456       C  0.30507836  0.83640135  0.65383498     0.93600
O1457       O  0.98757948  0.86420652  0.73395724    -0.81800
Mg1458     Mg  0.45245537  0.79267059  0.65131307     1.58200
O1459       O  0.33892172  0.83640555  0.72267992    -0.80200
O1460       O  0.44276699  0.80850452  0.59040393    -0.81800
C1461       C  0.32054850  0.92872299  0.88365104    -0.09900
C1462       C  0.32440345  0.90801689  0.89769928    -0.03800
C1463       C  0.33405817  0.88812679  0.88854809    -0.09900
C1464       C  0.33934178  0.88820270  0.86444930     0.11000
C1465       C  0.33689349  0.91009085  0.85008885    -0.01700
C1466       C  0.32857612  0.93122853  0.85980625     0.10800
C1467       C  0.32847246  0.95405088  0.84541869    -0.11700
C1468       C  0.33671734  0.95624052  0.82192146    -0.11700
C1469       C  0.34358192  0.93458542  0.81180295     0.10800
C1470       C  0.34285959  0.91084192  0.82595246    -0.01700
C1471       C  0.34745184  0.86742704  0.85436311    -0.11900
C1472       C  0.35061710  0.86645089  0.83049827    -0.11900
C1473       C  0.34830962  0.88789123  0.81602061     0.11000
C1474       C  0.35131128  0.88706637  0.79181798    -0.09900
C1475       C  0.35412094  0.91168626  0.77825693    -0.03800
C1476       C  0.35175002  0.93609680  0.78803293    -0.09900
H1477       H  0.32257551  0.97073206  0.85234361     0.08300
H1478       H  0.33696222  0.97458366  0.81162843     0.08300
H1479       H  0.35099653  0.85134195  0.86470233     0.08500
H1480       H  0.35560986  0.84915624  0.82356457     0.08500
H1481       H  0.31940589  0.90712391  0.91615592     0.04900
H1482       H  0.35892632  0.91221156  0.75979822     0.04900
C1483       C  0.99318006  0.72699250  0.44629941    -0.09900
C1484       C  0.99813483  0.75404714  0.43501349    -0.03800
C1485       C  0.00040643  0.77930525  0.44716821    -0.09900
C1486       C  0.99573985  0.77696810  0.47142318     0.11000
C1487       C  0.98949067  0.74919092  0.48319068    -0.01700
C1488       C  0.98833956  0.72410754  0.47065282     0.10800
C1489       C  0.98137129  0.69667246  0.48268716    -0.11700
C1490       C  0.47804603  0.69734635  0.50565122    -0.11700
C1491       C  0.47791898  0.72150692  0.51814910     0.10800
C1492       C  0.48529076  0.74951301  0.50622262    -0.01700
C1493       C  0.99604924  0.80117286  0.48406839    -0.11900
C1494       C  0.49115920  0.80122666  0.50616787    -0.11900
C1495       C  0.48434733  0.77393684  0.51820621     0.11000
C1496       C  0.47666653  0.77049067  0.54199988    -0.09900
C1497       C  0.46954853  0.74292660  0.55349110    -0.03800
C1498       C  0.46958499  0.71824982  0.54205783    -0.09900
H1499       H  0.97961476  0.67687453  0.47360359     0.08300
H1500       H  0.47208948  0.67555883  0.51406287     0.08300
H1501       H  0.99993142  0.82231815  0.47570153     0.08500
H1502       H  0.49074774  0.82029514  0.51484315     0.08500
H1503       H  0.00181978  0.75608443  0.41634665     0.04900
H1504       H  0.46319162  0.74037866  0.57176964     0.04900
C1505       C  0.19707193  0.75492628  0.46709122    -0.09900
C1506       C  0.21816205  0.78559179  0.46068714    -0.03800
C1507       C  0.24852811  0.80095987  0.46896268    -0.09900
C1508       C  0.25579472  0.78870703  0.48848668     0.11000
C1509       C  0.23345063  0.75872657  0.49708427    -0.01700
C1510       C  0.20417000  0.74147987  0.48603336     0.10800
C1511       C  0.18338364  0.71113996  0.49379375    -0.11700
C1512       C  0.19139350  0.69765092  0.51166200    -0.11700
C1513       C  0.22071420  0.71379919  0.52234862     0.10800
C1514       C  0.24138077  0.74504700  0.51554358    -0.01700
C1515       C  0.28478829  0.80512955  0.49928337    -0.11900
C1516       C  0.29160761  0.79253769  0.51847830    -0.11900
C1517       C  0.27036467  0.76234507  0.52667000     0.11000
C1518       C  0.27786133  0.74863925  0.54517538    -0.09900
C1519       C  0.25834071  0.71705192  0.55057180    -0.03800
C1520       C  0.23014606  0.69918463  0.53912907    -0.09900
H1521       H  0.16069836  0.69749285  0.48609702     0.08300
H1522       H  0.17411104  0.67439255  0.51711696     0.08300
H1523       H  0.30213355  0.82807602  0.49317945     0.08500
H1524       H  0.31423290  0.80619542  0.52628700     0.08500
H1525       H  0.21264946  0.79585910  0.44618592     0.04900
H1526       H  0.26549880  0.70637740  0.56363972     0.04900
C1527       C  0.21979998  0.95262639  0.45848856    -0.09900
C1528       C  0.24503840  0.94881146  0.45151225    -0.03800
C1529       C  0.27224880  0.96034315  0.46437563    -0.09900
C1530       C  0.27463176  0.97600625  0.48523006     0.11000
C1531       C  0.24853756  0.97809627  0.49367048    -0.01700
C1532       C  0.22079400  0.96596820  0.48048742     0.10800
C1533       C  0.19524858  0.96805001  0.48959824    -0.11700
C1534       C  0.19664627  0.49150679  0.50075460    -0.11700
C1535       C  0.21938153  0.49799488  0.51761979     0.10800
C1536       C  0.24617268  0.49607456  0.51134230    -0.01700
C1537       C  0.30232395  0.98947892  0.49786537    -0.11900
C1538       C  0.29798289  0.50484146  0.51973415    -0.11900
C1539       C  0.27125429  0.50620297  0.52694870     0.11000
C1540       C  0.26894359  0.51785315  0.54901784    -0.09900
C1541       C  0.24067972  0.51679346  0.55569858    -0.03800
C1542       C  0.21533497  0.50577007  0.54055611    -0.09900
H1543       H  0.17376282  0.95940744  0.48022643     0.08300
H1544       H  0.17730347  0.49553832  0.50395501     0.08300
H1545       H  0.32272156  0.98866343  0.49169533     0.08500
H1546       H  0.31840535  0.51364795  0.53036557     0.08500
H1547       H  0.24374314  0.93690608  0.43549539     0.04900
H1548       H  0.23804722  0.52321700  0.57315249     0.04900
O1549       O  0.00920948  0.96168309  0.02290006    -0.87400
C1550       C  0.06199625  0.52204211  0.97049531     0.88600
Mg1551     Mg  0.45996281  0.93086727  0.02255089     1.58100
O1552       O  0.04393386  0.55666155  0.01723527    -0.87200
O1553       O  0.04452876  0.50117546  0.04598464    -0.74500
C1554       C  0.39581328  0.01200325  0.98287600     0.93600
O1555       O  0.99768462  0.94901768  0.96807440    -0.74300
O1556       O  0.39271350  0.98508647  0.98056651    -0.81800
Mg1557     Mg  0.03767540  0.96236985  0.99336579     1.58000
C1558       C  0.00799384  0.61607074  0.99923523     0.93600
O1559       O  0.08205294  0.97187858  0.01214740    -0.80100
H1560       H  0.04595266  0.56707705  0.05080430    -0.05400
C1561       C  0.48317718  0.53057552  0.95775699     0.88500
O1562       O  0.44767124  0.96480846  0.04021671    -0.74600
O1563       O  0.05728025  0.51217719  0.99062228    -0.87400
O1564       O  0.03212422  0.61382288  0.99457897    -0.80200
C1565       C  0.11837751  0.60856412  0.99375954     0.93700
C1566       C  0.11023226  0.49716541  0.02003937     0.93500
Mg1567     Mg  0.46351019  0.54004650  0.00595711     1.58000
O1568       O  0.42030689  0.53049472  0.98535829    -0.80100
O1569       O  0.50266425  0.55257103  0.03203717    -0.74300
O1570       O  0.11552123  0.58373161  0.00239788    -0.80200
O1571       O  0.02151521  0.91196366  0.99900705    -0.81900
O1572       O  0.38786834  0.92342218  0.00263636    -0.80200
C1573       C  0.03230200  0.56018203  0.03522991     0.88000
O1574       O  0.44761482  0.99566754  0.01332005    -0.87300
O1575       O  0.49279685  0.54099286  0.97714219    -0.87400
O1576       O  0.46008308  0.00453887  0.95796859    -0.74500
Mg1577     Mg  0.07719412  0.54044451  0.02096683     1.58000
O1578       O  0.09521577  0.61065296  0.98658369    -0.81900
H1579       H  0.00842392  0.95730703  0.05735162    -0.05600
O1580       O  0.45919460  0.94898560  0.98806279    -0.87100
H1581       H  0.45552768  0.93597373  0.95500823    -0.05400
H1582       H  0.43598272  0.99794038  0.04626537    -0.05600
C1583       C  0.46978318  0.94368350  0.97026806     0.87900
C1584       C  0.01931076  0.97185500  0.04223158     0.88500
C1585       C  0.44307614  0.98652041  0.03364042     0.88600
H1586       H  0.49431190  0.54501551  0.94263781    -0.05600
O1587       O  0.05709867  0.54373019  0.96444415    -0.74600
Mg1588     Mg  0.42686008  0.96640287  0.98351699     1.58000
H1589       H  0.06958632  0.51134767  0.95760116    -0.05600
C1590       C  0.49376799  0.88829568  0.00772443     0.93600
O1591       O  0.40785110  0.89704434  0.01995405    -0.81800
C1592       C  0.38478973  0.89893283  0.01224949     0.93600
O1593       O  0.11252050  0.52362608  0.02269607    -0.81800
Mg1594     Mg  0.04349783  0.57596428  0.98322134     1.58200
O1595       O  0.47002957  0.89129645  0.01239852    -0.80200
O1596       O  0.48021212  0.59104258  0.00075520    -0.81800
O1597       O  0.31917428  0.70667625  0.35097858    -0.87400
C1598       C  0.27880006  0.64481650  0.29818706     0.88600
Mg1599     Mg  0.36755706  0.74414668  0.34801127     1.58100
O1600       O  0.29590197  0.61611173  0.34848001    -0.87200
O1601       O  0.28544302  0.66770684  0.37254281    -0.74500
C1602       C  0.44789761  0.67662631  0.32208732     0.93600
O1603       O  0.33342367  0.71869617  0.29641075    -0.74300
O1604       O  0.44905551  0.70260868  0.32131934    -0.81800
Mg1605     Mg  0.29110785  0.70248004  0.32171916     1.58000
C1606       C  0.33815711  0.56168103  0.33800507     0.93600
O1607       O  0.24549728  0.68816009  0.34333066    -0.80100
H1608       H  0.29102344  0.60604917  0.38239953    -0.05400
C1609       C  0.36154046  0.64409178  0.29545409     0.88500
O1610       O  0.38319816  0.71635242  0.37098674    -0.74600
O1611       O  0.28019146  0.65506735  0.31785779    -0.87400
O1612       O  0.31312248  0.56267678  0.33595829    -0.80200
C1613       C  0.22657967  0.55779017  0.32292705     0.93700
C1614       C  0.21965791  0.66251601  0.34377566     0.93500
Mg1615     Mg  0.37691741  0.63664712  0.34394964     1.58000
O1616       O  0.42202221  0.65107605  0.32205128    -0.80100
O1617       O  0.33458111  0.62037715  0.36916704    -0.74300
O1618       O  0.22598082  0.58251204  0.32728147    -0.80200
O1619       O  0.30285917  0.75227354  0.32675241    -0.81900
O1620       O  0.44264750  0.75661911  0.33881910    -0.80200
C1621       C  0.30626452  0.61369172  0.36724341     0.88000
O1622       O  0.38784311  0.68428056  0.34772918    -0.87300
O1623       O  0.34955665  0.63330575  0.31465751    -0.87400
O1624       O  0.38321483  0.67217114  0.29299198    -0.74500
Mg1625     Mg  0.25827800  0.62636559  0.34778709     1.58000
O1626       O  0.25191689  0.55744678  0.32032000    -0.81900
H1627       H  0.31555343  0.71033264  0.38525371    -0.05600
O1628       O  0.37251248  0.72356412  0.31688435    -0.87100
H1629       H  0.37684092  0.73302136  0.28288347    -0.05400
H1630       H  0.39707013  0.68611428  0.38150661    -0.05600
C1631       C  0.36182395  0.72556511  0.29815274     0.87900
C1632       C  0.30723907  0.69577652  0.37017293     0.88500
C1633       C  0.38982025  0.69508984  0.36726379     0.88600
H1634       H  0.35326170  0.62943080  0.28041487    -0.05600
O1635       O  0.28633383  0.62427739  0.29417688    -0.74600
Mg1636     Mg  0.41007332  0.71317104  0.31790695     1.58000
H1637       H  0.27155975  0.65390897  0.28402318    -0.05600
C1638       C  0.32913017  0.77709847  0.32772063     0.93600
O1639       O  0.41805966  0.78338252  0.34315999    -0.81800
C1640       C  0.44311819  0.78224093  0.34103994     0.93600
O1641       O  0.21879339  0.63664906  0.34469962    -0.81800
Mg1642     Mg  0.30159018  0.59625674  0.31703522     1.58200
O1643       O  0.35470435  0.77695319  0.32923170    -0.80200
O1644       O  0.36478323  0.58619730  0.33900241    -0.81800
O1645       O  0.14782511  0.86423078  0.68454626    -0.87400
C1646       C  0.10568574  0.80659196  0.62942022     0.88600
Mg1647     Mg  0.19538135  0.90217810  0.68389644     1.58100
O1648       O  0.12843971  0.77328636  0.67407459    -0.87200
O1649       O  0.11780571  0.82199520  0.70459855    -0.74500
C1650       C  0.27869383  0.84107838  0.64809883     0.93600
O1651       O  0.16164467  0.88081997  0.63100117    -0.74300
O1652       O  0.28074816  0.86725972  0.65127002    -0.81800
Mg1653     Mg  0.11904467  0.86182318  0.65638915     1.58000
C1654       C  0.17525547  0.72537279  0.65274514     0.93600
O1655       O  0.07260955  0.84382432  0.67874641    -0.80100
H1656       H  0.12387491  0.75577284  0.70606042    -0.05400
C1657       C  0.19293287  0.81229932  0.62041982     0.88500
O1658       O  0.21091595  0.87110865  0.70286356    -0.74600
O1659       O  0.10854182  0.81461302  0.64986869    -0.87400
O1660       O  0.14927472  0.72478322  0.65112429    -0.80200
C1661       C  0.05825756  0.71512479  0.64953937     0.93700
C1662       C  0.04818505  0.81711591  0.68192129     0.93500
Mg1663     Mg  0.20926794  0.79809546  0.66610917     1.58000
O1664       O  0.25291667  0.81799570  0.64218897    -0.80100
O1665       O  0.16776898  0.77492106  0.69214815    -0.74300
O1666       O  0.05797921  0.73789782  0.65941925    -0.80200
O1667       O  0.13093559  0.91247132  0.66257856    -0.81900
O1668       O  0.27129548  0.91954516  0.67209853    -0.80200
C1669       C  0.13911137  0.76730606  0.69129825     0.88000
O1670       O  0.21733682  0.84398938  0.67578043    -0.87300
O1671       O  0.18047410  0.79797098  0.63861062    -0.87400
O1672       O  0.21482555  0.84052557  0.62061478    -0.74500
Mg1673     Mg  0.09032707  0.78263276  0.67891689     1.58000
O1674       O  0.08318143  0.71708451  0.64116455    -0.81900
H1675       H  0.14569059  0.86385989  0.71914797    -0.05600
O1676       O  0.20266432  0.88764778  0.65014035    -0.87100
H1677       H  0.20504069  0.89831087  0.61645173    -0.05400
H1678       H  0.22509131  0.83981235  0.70917081    -0.05600
C1679       C  0.19062958  0.88952688  0.63200829     0.87900
C1680       C  0.13738931  0.85085065  0.70335174     0.88500
C1681       C  0.21821701  0.85106203  0.69638130     0.88600
H1682       H  0.18530414  0.80058655  0.60404905    -0.05600
O1683       O  0.11423965  0.78784090  0.62222675    -0.74600
Mg1684     Mg  0.24072447  0.87789532  0.64879659     1.58000
H1685       H  0.09644806  0.81638132  0.61725466    -0.05600
C1686       C  0.15736844  0.93726376  0.66434895     0.93600
O1687       O  0.24514662  0.94282409  0.68397668    -0.81800
C1688       C  0.27061511  0.94324311  0.67968828     0.93600
O1689       O  0.04943600  0.79212487  0.68161782    -0.81800
Mg1690     Mg  0.13308821  0.75879442  0.63928294     1.58200
O1691       O  0.18234535  0.93667540  0.66820515    -0.80200
O1692       O  0.20085168  0.75048298  0.65551699    -0.81800
C1693       C  0.35405451  0.86222288  0.78005119    -0.15500
C1694       C  0.33633640  0.84793627  0.76170161    -0.30700
H1695       H  0.37416539  0.85978589  0.78403504     0.13500
H1696       H  0.31671768  0.85127245  0.75781724     0.14100
C1697       C  0.32325758  0.75924031  0.56949830    -0.15500
C1698       C  0.30340291  0.76778180  0.56111437    -0.30700
H1699       H  0.32467137  0.73985491  0.56221196     0.13500
H1700       H  0.30404714  0.78855615  0.56772141     0.14100
C1701       C  0.47227293  0.79349039  0.55520354    -0.15500
C1702       C  0.48429195  0.80174277  0.57638206    -0.30700
H1703       H  0.45411178  0.79814401  0.54953504     0.13500
H1704       H  0.50263622  0.79702840  0.58152436     0.14100
C1705       C  0.38725399  0.97928493  0.76241222    -0.15500
C1706       C  0.35884056  0.96283600  0.77272003    -0.30700
H1707       H  0.40413565  0.47531812  0.76454802     0.13500
H1708       H  0.34049266  0.96822199  0.76925611     0.14100
C1709       C  0.29540537  0.53180547  0.56558011    -0.15500
C1710       C  0.30886333  0.51625914  0.57444960    -0.30700
H1711       H  0.30179560  0.55452490  0.57239457     0.13500
H1712       H  0.30001988  0.49219850  0.56972898     0.14100
C1713       C  0.46134247  0.69007806  0.55629175    -0.15500
C1714       C  0.43583245  0.67753354  0.57042427    -0.30700
H1715       H  0.47741791  0.68114748  0.55647711     0.13500
H1716       H  0.41870733  0.68506108  0.56891045     0.14100
C1717       C  0.00302165  0.87934608  0.78276755    -0.15500
C1718       C  0.98424045  0.88527684  0.76986820    -0.30700
H1719       H  0.00455476  0.85860326  0.77960948     0.13500
H1720       H  0.48186659  0.90558796  0.77285241     0.14100
C1721       C  0.04237491  0.66384189  0.76305927    -0.15500
C1722       C  0.01372527  0.63851991  0.76250137    -0.30700
H1723       H  0.05022699  0.68020975  0.74861444     0.13500
H1724       H  0.50793941  0.62241807  0.77421863     0.14100
C1725       C  0.09132822  0.97470043  0.75596158    -0.15500
C1726       C  0.09286052  0.98088653  0.77888273    -0.30700
H1727       H  0.08708772  0.46314522  0.75127696     0.13500
H1728       H  0.10747856  0.00431373  0.78508822     0.14100
C1729       C  0.15181980  0.65770335  0.75374514    -0.15500
C1730       C  0.12977498  0.64333495  0.77032850    -0.30700
H1731       H  0.15930693  0.68178314  0.74955098     0.13500
H1732       H  0.12045749  0.61877445  0.77381650     0.14100
C1733       C  0.17033413  0.50546096  0.56518018    -0.15500
C1734       C  0.18246933  0.49527923  0.54868905    -0.30700
H1735       H  0.14500784  0.49245298  0.56715756     0.13500
H1736       H  0.16459594  0.47529634  0.53962247     0.14100
C1737       C  0.21331217  0.64558185  0.55748498    -0.15500
C1738       C  0.21385005  0.66464769  0.54061177    -0.30700
H1739       H  0.20292284  0.62137085  0.55252815     0.13500
H1740       H  0.20327258  0.65284795  0.52462308     0.14100
C1741       C  0.02193167  0.83869738  0.90393120    -0.15500
C1742       C  0.05012074  0.84766686  0.89401545    -0.30700
H1743       H  0.01040090  0.85206954  0.90075226     0.13500
H1744       H  0.06311349  0.83642845  0.89936719     0.14100
C1745       C  0.07520159  0.73470967  0.90265196    -0.15500
C1746       C  0.06501752  0.71130675  0.88724338    -0.30700
H1747       H  0.09862128  0.75451128  0.90042611     0.13500
H1748       H  0.04077723  0.69281058  0.88774623     0.14100
C1749       C  0.33700339  0.86718608  0.90521968    -0.15500
C1750       C  0.31884906  0.83626554  0.90393776    -0.30700
H1751       H  0.34862814  0.87744219  0.92134439     0.13500
H1752       H  0.30469061  0.82611673  0.88873924     0.14100
C1753       C  0.16757783  0.71927733  0.88278648    -0.15500
C1754       C  0.16413392  0.70758033  0.90430541    -0.30700
H1755       H  0.19036827  0.73654124  0.87595529     0.13500
H1756       H  0.14113880  0.68908815  0.90992801     0.14100
C1757       C  0.14812289  0.96765310  0.90662703    -0.15500
C1758       C  0.14642085  0.94854680  0.88954429    -0.30700
H1759       H  0.12886680  0.97218173  0.90895406     0.13500
H1760       H  0.16445893  0.94221385  0.88785540     0.14100
C1761       C  0.30925404  0.94793295  0.89517111    -0.15500
C1762       C  0.27992875  0.93506729  0.90408386    -0.30700
H1763       H  0.32638493  0.97186869  0.89892656     0.13500
H1764       H  0.26260438  0.91149715  0.89958722     0.14100
C1765       C  0.43792686  0.79522559  0.11550908    -0.15500
C1766       C  0.42979758  0.76877423  0.10380800    -0.30700
H1767       H  0.46004577  0.81603855  0.11152313     0.13500
H1768       H  0.40897437  0.74747307  0.10931303     0.14100
C1769       C  0.33314439  0.77879344  0.12046693    -0.15500
C1770       C  0.33438558  0.79773303  0.10350235    -0.30700
H1771       H  0.31466892  0.75467782  0.12140530     0.13500
H1772       H  0.35429326  0.82120419  0.10229990     0.14100
C1773       C  0.29704156  0.95455162  0.45511372    -0.15500
C1774       C  0.31847398  0.97447169  0.43976351    -0.30700
H1775       H  0.29221593  0.93072812  0.45594311     0.13500
H1776       H  0.32124711  0.99746292  0.43774160     0.14100
C1777       C  0.27373695  0.81593493  0.43094930    -0.15500
C1778       C  0.27245088  0.82468311  0.45292117    -0.30700
H1779       H  0.26050403  0.79137177  0.42687928     0.13500
H1780       H  0.28592567  0.84875865  0.45811749     0.14100
C1781       C  0.34705045  0.86125930  0.23171547    -0.15500
C1782       C  0.37192403  0.88145739  0.21879203    -0.30700
H1783       H  0.34047196  0.83688065  0.23183317     0.13500
H1784       H  0.38078080  0.90618514  0.22080914     0.14100
C1785       C  0.03357866  0.83498412  0.43611849    -0.15500
C1786       C  0.00757903  0.80723306  0.43317081    -0.30700
H1787       H  0.04801659  0.83868936  0.45112227     0.13500
H1788       H  0.99453241  0.80302034  0.41730779     0.14100
C1789       C  0.19361797  0.94346121  0.44187051    -0.15500
C1790       C  0.19965594  0.94938578  0.41895106    -0.30700
H1791       H  0.16970484  0.93325513  0.44828988     0.13500
H1792       H  0.22381187  0.96131371  0.41275473     0.14100
C1793       C  0.47001393  0.88498735  0.24808519    -0.15500
C1794       C  0.47309937  0.88587407  0.22474927    -0.30700
H1795       H  0.97312733  0.91193869  0.24621672     0.13500
H1796       H  0.49557490  0.89211540  0.21683043     0.14100
C1797       C  0.48025188  0.63385575  0.09613197    -0.15500
C1798       C  0.48274256  0.66182242  0.09937291    -0.30700
H1799       H  0.48928965  0.62961808  0.08010798     0.13500
H1800       H  0.47125076  0.66522071  0.11437008     0.14100
C1801       C  0.35298527  0.53394299  0.09299435    -0.15500
C1802       C  0.38125296  0.53618780  0.09159291    -0.30700
H1803       H  0.34741470  0.54384294  0.10783303     0.13500
H1804       H  0.38788628  0.52871147  0.07589422     0.14100
C1805       C  0.39487374  0.50683008  0.21565636    -0.15500
C1806       C  0.39205324  0.51700475  0.23677720    -0.30700
H1807       H  0.38185785  0.48240054  0.21133239     0.13500
H1808       H  0.40477277  0.54180406  0.24008326     0.14100
C1809       C  0.17403509  0.64311917  0.10465334    -0.15500
C1810       C  0.19215620  0.67396692  0.10344100    -0.30700
H1811       H  0.15802272  0.63133839  0.09064166     0.13500
H1812       H  0.20989236  0.68575092  0.11641541     0.14100
C1813       C  0.20024818  0.56082538  0.10388620    -0.15500
C1814       C  0.22964495  0.57317016  0.09527178    -0.30700
H1815       H  0.18255761  0.53735291  0.09948343     0.13500
H1816       H  0.24770997  0.59599033  0.10065960     0.14100
C1817       C  0.13903519  0.50132220  0.22711650    -0.15500
C1818       C  0.12381387  0.51491353  0.21840144    -0.30700
H1819       H  0.16794242  0.02587190  0.24020040     0.13500
H1820       H  0.09942700  0.50591462  0.22337618     0.14100
C1821       C  0.01794532  0.69680592  0.43394394    -0.15500
C1822       C  0.99510711  0.70376240  0.43132598    -0.30700
H1823       H  0.03085760  0.70282154  0.44997528     0.13500
H1824       H  0.98361614  0.69942359  0.41472254     0.14100
C1825       C  0.17987960  0.73890113  0.42756180    -0.15500
C1826       C  0.17194824  0.73652989  0.45027318    -0.30700
H1827       H  0.20435268  0.75292500  0.42240371     0.13500
H1828       H  0.14816260  0.72074608  0.45620087     0.14100
C1829       C  0.48574666  0.59867044  0.23932022    -0.15500
C1830       C  0.49522764  0.59704973  0.21754892    -0.30700
H1831       H  0.46084721  0.58696517  0.24346188     0.13500
H1832       H  0.51974502  0.61009496  0.21239232     0.14100
C1833       C  0.15732932  0.62385852  0.23318519    -0.15500
C1834       C  0.14049213  0.63818940  0.23226306    -0.30700
H1835       H  0.16725689  0.62289498  0.24963855     0.13500
H1836       H  0.12796072  0.63663608  0.21655075     0.14100
O1837       O  0.58584168  0.20276381  0.36984361    -0.87400
C1838       C  0.60574984  0.13212663  0.36782696     0.88600
Mg1839     Mg  0.54132226  0.19553808  0.35994752     1.58100
O1840       O  0.63719457  0.18385255  0.31979512    -0.87200
O1841       O  0.63338977  0.23079216  0.35597263    -0.74500
C1842       C  0.50495726  0.11754717  0.26179685     0.93600
O1843       O  0.53896004  0.13041117  0.38181410    -0.74300
O1844       O  0.99280612  0.11695080  0.28080118    -0.81800
Mg1845     Mg  0.58591369  0.16989398  0.39444821     1.58000
C1846       C  0.62629379  0.14361570  0.25298748     0.93600
O1847       O  0.63129575  0.20428818  0.41285921    -0.80100
H1848       H  0.66669706  0.22593992  0.30663282    -0.05400
C1849       C  0.55673525  0.10399083  0.30795822     0.88500
O1850       O  0.55934215  0.21320114  0.32296894    -0.74600
O1851       O  0.61187171  0.15938804  0.36889021    -0.87400
O1852       O  0.63954939  0.14446894  0.27211899    -0.80200
C1853       C  0.69000791  0.16006097  0.33843342     0.93700
C1854       C  0.66054533  0.21558498  0.40932825     0.93500
Mg1855     Mg  0.57886356  0.16246031  0.27758310     1.58000
O1856       O  0.53414053  0.12807922  0.25922612    -0.80100
O1857       O  0.62612832  0.20206796  0.28929449    -0.74300
O1858       O  0.68355267  0.17542471  0.35279817    -0.80200
O1859       O  0.55864189  0.18240203  0.42030537    -0.81900
O1860       O  0.98324853  0.15911390  0.31658595    -0.80200
C1861       C  0.64454280  0.20468617  0.30527766     0.88000
O1862       O  0.55371827  0.17349531  0.30288808    -0.87300
O1863       O  0.57916596  0.12937429  0.30218937    -0.87400
O1864       O  0.53108831  0.10137151  0.31499160    -0.74500
Mg1865     Mg  0.65393818  0.19874130  0.35420694     1.58000
O1866       O  0.67248940  0.14568418  0.32149145    -0.81900
H1867       H  0.60517937  0.24831119  0.36391242    -0.05600
O1868       O  0.52809185  0.14849181  0.35104293    -0.87100
H1869       H  0.49890926  0.10614019  0.36393125    -0.05400
H1870       H  0.56959852  0.21549193  0.28861196    -0.05600
C1871       C  0.52082491  0.12758954  0.36551745     0.87900
C1872       C  0.60803432  0.22813449  0.36374401     0.88500
C1873       C  0.56085733  0.20106528  0.30402388     0.88600
H1874       H  0.55944939  0.08371443  0.30789999    -0.05600
O1875       O  0.60781847  0.12026690  0.34889449    -0.74600
Mg1876     Mg  0.51115800  0.13411169  0.31670441     1.58000
H1877       H  0.59768797  0.11777446  0.38330259    -0.05600
C1878       C  0.53457692  0.18524307  0.41781296     0.93600
O1879       O  0.99474644  0.19037153  0.34698752    -0.81800
C1880       C  0.97781226  0.17639271  0.32971740     0.93600
O1881       O  0.67198686  0.21427550  0.38981640    -0.81800
Mg1882     Mg  0.62420004  0.13667873  0.31131927     1.58200
O1883       O  0.52288973  0.18398376  0.39794215    -0.80200
O1884       O  0.60397393  0.14922820  0.25179543    -0.81800
C1885       C  0.64778752  0.09537752  0.21360070    -0.09900
C1886       C  0.63828423  0.06512493  0.22130782    -0.03800
C1887       C  0.63725740  0.04255867  0.20635965    -0.09900
C1888       C  0.64864050  0.05102990  0.18344384     0.11000
C1889       C  0.65571368  0.08061675  0.17477110    -0.01700
C1890       C  0.65424268  0.10263249  0.18960407     0.10800
C1891       C  0.65966023  0.13099608  0.17990243    -0.11700
C1892       C  0.66364032  0.13634964  0.15597808    -0.11700
C1893       C  0.66639435  0.11533618  0.14134490     0.10800
C1894       C  0.66433590  0.08817909  0.15114176    -0.01700
C1895       C  0.65323931  0.03088215  0.16903142    -0.11900
C1896       C  0.66531775  0.03999135  0.14659401    -0.11900
C1897       C  0.67055769  0.06836702  0.13726035     0.11000
C1898       C  0.68179447  0.07762252  0.11437481    -0.09900
C1899       C  0.68060181  0.10249773  0.10429206    -0.03800
C1900       C  0.67143465  0.12045988  0.11716404    -0.09900
H1901       H  0.66025053  0.14914031  0.19045121     0.08300
H1902       H  0.66603362  0.15773731  0.14917614     0.08300
H1903       H  0.64856749  0.00840140  0.17529277     0.08500
H1904       H  0.66952151  0.02417424  0.13635712     0.08500
H1905       H  0.63109932  0.05884503  0.23929481     0.04900
H1906       H  0.68629864  0.10756642  0.08597727     0.04900
C1907       C  0.96978345  0.07578217  0.20400494    -0.09900
C1908       C  0.94782298  0.04660922  0.21256379    -0.03800
C1909       C  0.91897873  0.02891038  0.20221341    -0.09900
C1910       C  0.91468106  0.03655476  0.17947847     0.11000
C1911       C  0.93875111  0.06418907  0.16877192    -0.01700
C1912       C  0.96611143  0.08440642  0.18133200     0.10800
C1913       C  0.98860855  0.11249340  0.17094450    -0.11700
C1914       C  0.98504278  0.12017799  0.14834487    -0.11700
C1915       C  0.95862138  0.10026454  0.13545324     0.10800
C1916       C  0.93494786  0.07217730  0.14584968    -0.01700
C1917       C  0.88731640  0.01763947  0.16723517    -0.11900
C1918       C  0.88406602  0.02493489  0.14439739    -0.11900
C1919       C  0.90764433  0.05192105  0.13330679     0.11000
C1920       C  0.90509188  0.05912779  0.10991151    -0.09900
C1921       C  0.92920971  0.08638526  0.09981206    -0.03800
C1922       C  0.95538402  0.10732895  0.11227034    -0.09900
H1923       H  0.00945386  0.12852161  0.18005190     0.08300
H1924       H  0.00334263  0.14180967  0.14094527     0.08300
H1925       H  0.86860485  0.99658293  0.17505651     0.08500
H1926       H  0.86292400  0.00922018  0.13544701     0.08500
H1927       H  0.95151202  0.03921831  0.22936556     0.04900
H1928       H  0.92738646  0.09164046  0.08183233     0.04900
O1929       O  0.57992663  0.44886364  0.30043859    -0.87400
C1930       C  0.55170577  0.35694372  0.30222327     0.88600
Mg1931     Mg  0.62703608  0.48409062  0.30578267     1.58100
O1932       O  0.53562208  0.38717227  0.35272400    -0.87200
O1933       O  0.53472079  0.43560606  0.31637224    -0.74500
C1934       C  0.68036395  0.44323678  0.39605897     0.93600
O1935       O  0.61873839  0.41696150  0.28320339    -0.74300
O1936       O  0.68916018  0.45632694  0.37626748    -0.81800
Mg1937     Mg  0.57206458  0.41427402  0.27505497     1.58000
C1938       C  0.55218464  0.35641190  0.41600020     0.93600
O1939       O  0.52492990  0.40723621  0.26205052    -0.80100
H1940       H  0.51414415  0.40647796  0.36973426    -0.05400
C1941       C  0.61379736  0.37871000  0.35597585     0.88500
O1942       O  0.61695495  0.48738089  0.34427537    -0.74600
O1943       O  0.54743843  0.37942521  0.30200704    -0.87400
O1944       O  0.53526198  0.35037818  0.39823789    -0.80200
C1945       C  0.97326818  0.31263385  0.33983415     0.93700
C1946       C  0.49595937  0.39154775  0.26767185     0.93500
Mg1947     Mg  0.60349275  0.41923120  0.38965043     1.58000
O1948       O  0.65146560  0.42607945  0.40164942    -0.80100
O1949       O  0.55620480  0.41679861  0.38279932    -0.74300
O1950       O  0.97720062  0.33386631  0.32548368    -0.80200
O1951       O  0.59872557  0.45266018  0.24709065    -0.81900
O1952       O  0.69437922  0.00659749  0.33557617    -0.80200
C1953       C  0.53428473  0.40339291  0.36838183     0.88000
O1954       O  0.62642397  0.45473429  0.36330896    -0.87300
O1955       O  0.59422348  0.38519810  0.36337311    -0.87400
O1956       O  0.63965661  0.39941606  0.34731834    -0.74500
Mg1957     Mg  0.51089491  0.38311402  0.32135388     1.58000
O1958       O  0.99456508  0.31580489  0.35349155    -0.81900
H1959       H  0.56556115  0.47949328  0.30569915    -0.05600
O1960       O  0.63864549  0.44838295  0.31244402    -0.87100
H1961       H  0.66104675  0.42922038  0.29660614    -0.05400
H1962       H  0.61450600  0.48302340  0.37928665    -0.05600
C1963       C  0.64058592  0.43180670  0.29736292     0.87900
C1964       C  0.56029733  0.45567827  0.30704681     0.88500
C1965       C  0.61960364  0.47554608  0.36304836     0.88600
H1966       H  0.60848499  0.35484292  0.35635550    -0.05600
O1967       O  0.55341117  0.34458947  0.32103685    -0.74600
Mg1968     Mg  0.66320969  0.45234441  0.34346024     1.58000
H1969       H  0.55514663  0.34823500  0.28596410    -0.05600
C1970       C  0.62569088  0.47694982  0.24847878     0.93600
O1971       O  0.67853605  0.02412382  0.30625284    -0.81800
C1972       C  0.69877963  0.02783095  0.32109508     0.93600
O1973       O  0.98547313  0.38257360  0.28507695    -0.81800
Mg1974     Mg  0.54577727  0.35050277  0.35963965     1.58200
O1975       O  0.63955597  0.48642909  0.26757686    -0.80200
O1976       O  0.57945902  0.38010799  0.41665005    -0.81800
O1977       O  0.85855780  0.42137265  0.29619420    -0.87400
C1978       C  0.79594173  0.44990709  0.31024775     0.88600
Mg1979     Mg  0.84876727  0.37490208  0.30205611     1.58100
O1980       O  0.85846176  0.47353157  0.34901524    -0.87200
O1981       O  0.89436003  0.46838007  0.30446402    -0.74500
C1982       C  0.78762725  0.33853096  0.40776775     0.93600
O1983       O  0.78453963  0.38116497  0.29256267    -0.74300
O1984       O  0.78771507  0.32650183  0.38839396    -0.81800
Mg1985     Mg  0.82466188  0.42633812  0.27652428     1.58000
C1986       C  0.83168621  0.46590055  0.41930560     0.93600
O1987       O  0.86010084  0.46979182  0.25645758    -0.80100
H1988       H  0.90378985  0.49715956  0.35689200    -0.05400
C1989       C  0.77680098  0.39746897  0.36920774     0.88500
O1990       O  0.87532172  0.38905184  0.33650354    -0.74600
O1991       O  0.82189576  0.45367785  0.30459461    -0.87400
O1992       O  0.84000523  0.48121049  0.40037485    -0.80200
C1993       C  0.84025394  0.03378418  0.34182211     0.93700
C1994       C  0.87389512  0.49910508  0.25848465     0.93500
Mg1995     Mg  0.83710209  0.41230869  0.39149910     1.58000
O1996       O  0.80025388  0.36774849  0.41047751    -0.80100
O1997       O  0.87815098  0.45777940  0.37607553    -0.74300
O1998       O  0.85075499  0.02600812  0.32429611    -0.80200
O1999       O  0.83174236  0.39978398  0.24735990    -0.81900
O2000       O  0.81677011  0.31369684  0.34238379    -0.80200
C2001       C  0.88103154  0.47715945  0.36041576     0.88000
O2002       O  0.84160464  0.38556620  0.36331039    -0.87300
O2003       O  0.80435022  0.41791658  0.37112645    -0.87400
O2004       O  0.76961086  0.37064557  0.36210612    -0.74500
Mg2005     Mg  0.86697570  0.49260439  0.31452311     1.58000
O2006       O  0.82959714  0.01688776  0.35987416    -0.81900
H2007       H  0.90412868  0.43574222  0.29257531    -0.05600
O2008       O  0.80578731  0.36552653  0.31845809    -0.87100
H2009       H  0.76018678  0.34145325  0.31154797    -0.05400
H2010       H  0.88559684  0.39728286  0.37058984    -0.05600
C2011       C  0.78267161  0.36165643  0.30769073     0.87900
C2012       C  0.88632238  0.44147527  0.29724249     0.88500
C2013       C  0.86801697  0.39061716  0.35751536     0.88600
H2014       H  0.75847876  0.40269196  0.37321203    -0.05600
O2015       O  0.78885225  0.45185089  0.33120806    -0.74600
Mg2016     Mg  0.79737508  0.34631821  0.35239365     1.58000
H2017       H  0.77854813  0.44398849  0.29710847    -0.05600
C2018       C  0.83124900  0.37409184  0.24887546     0.93600
O2019       O  0.83995088  0.32592204  0.30753141    -0.81800
C2020       C  0.82868935  0.30755647  0.32480758     0.93600
O2021       O  0.87744443  0.01034262  0.27846701    -0.81800
Mg2022     Mg  0.81561028  0.46521380  0.36545364     1.58200
O2023       O  0.82371520  0.35870407  0.26776759    -0.80200
O2024       O  0.82882540  0.43903983  0.42067973    -0.81800
C2025       C  0.93448677  0.35832035  0.21776496    -0.09900
C2026       C  0.90876388  0.35763764  0.22909756    -0.03800
C2027       C  0.87961932  0.34521467  0.21892152    -0.09900
C2028       C  0.87497082  0.33187570  0.19690051     0.11000
C2029       C  0.90007075  0.33088385  0.18531344    -0.01700
C2030       C  0.93008225  0.34451916  0.19548543     0.10800
C2031       C  0.95451103  0.34368066  0.18308312    -0.11700
C2032       C  0.94934699  0.32879749  0.16166924    -0.11700
C2033       C  0.91961329  0.31428650  0.15176627     0.10800
C2034       C  0.89480112  0.31555609  0.16373709    -0.01700
C2035       C  0.84553851  0.31849221  0.18662277    -0.11900
C2036       C  0.84049530  0.30381241  0.16546594    -0.11900
C2037       C  0.86461581  0.30172901  0.15401732     0.11000
C2038       C  0.85944640  0.28665123  0.13274315    -0.09900
C2039       C  0.88332706  0.28437495  0.12169131    -0.03800
C2040       C  0.91346892  0.29810205  0.13042819    -0.09900
H2041       H  0.97792199  0.35452055  0.18976697     0.08300
H2042       H  0.96878051  0.32843577  0.15303597     0.08300
H2043       H  0.82597806  0.31889713  0.19498311     0.08500
H2044       H  0.81732023  0.29359086  0.15831411     0.08500
H2045       H  0.91077821  0.36588073  0.24667678     0.04900
H2046       H  0.87863770  0.27352620  0.10481292     0.04900
O2047       O  0.75925702  0.00557465  0.95583652    -0.87400
C2048       C  0.68407676  0.44815374  0.99410277     0.88600
Mg2049     Mg  0.80344080  0.00706023  0.96091828     1.58100
O2050       O  0.71846473  0.02851285  0.00885832    -0.87200
O2051       O  0.73891955  0.03584303  0.95574786    -0.74500
C2052       C  0.83080402  0.02873007  0.07419395     0.93600
O2053       O  0.74316459  0.43798825  0.97851144    -0.74300
O2054       O  0.83605576  0.01605134  0.05679458    -0.81800
Mg2055     Mg  0.72291659  0.45801648  0.95255382     1.58000
C2056       C  0.73247165  0.05669261  0.07676127     0.93600
O2057       O  0.69910482  0.47187186  0.92473666    -0.80100
H2058       H  0.73264649  0.07219441  0.99902142    -0.05400
C2059       C  0.74452748  0.47689813  0.04904878     0.88500
O2060       O  0.82251761  0.05132768  0.98292579    -0.74600
O2061       O  0.70038447  0.46917090  0.98015169    -0.87400
O2062       O  0.71150384  0.03777714  0.06343329    -0.80200
C2063       C  0.63844588  0.49347641  0.01440156     0.93700
C2064       C  0.67771301  0.47907107  0.92391567     0.93500
Mg2065     Mg  0.78330809  0.04824682  0.04638584     1.58000
O2066       O  0.80932642  0.03594013  0.07407516    -0.80100
O2067       O  0.76214321  0.06779554  0.02076249    -0.74300
O2068       O  0.64741284  0.48968930  0.99435870    -0.80200
O2069       O  0.74579463  0.44408219  0.92364303    -0.81900
O2070       O  0.85669935  0.01671687  0.00343855    -0.80200
C2071       C  0.73718143  0.05668984  0.00926829     0.88000
O2072       O  0.80489749  0.03671827  0.01839293    -0.87300
O2073       O  0.74493324  0.50060522  0.04205599    -0.87400
O2074       O  0.76567967  0.47069449  0.04310717    -0.74500
Mg2075     Mg  0.69316433  0.01087516  0.97744776     1.58000
O2076       O  0.65498639  0.49848537  0.03221394    -0.81900
H2077       H  0.77895082  0.04584293  0.93827821    -0.05600
O2078       O  0.78692792  0.47735267  0.99018008    -0.87100
H2079       H  0.77258518  0.43379434  0.00046689    -0.05400
H2080       H  0.83331413  0.08124172  0.00965971    -0.05600
C2081       C  0.76813519  0.44918192  0.98999867     0.87900
C2082       C  0.75983659  0.02953899  0.94931931     0.88500
C2083       C  0.82087813  0.05739276  0.00410279     0.88600
H2084       H  0.72532038  0.46068825  0.06006342    -0.05600
O2085       O  0.68195892  0.45372572  0.01529965    -0.74600
Mg2086     Mg  0.81167130  0.49592207  0.02178430     1.58000
H2087       H  0.67188901  0.42441781  0.98824093    -0.05600
C2088       C  0.77367722  0.44913522  0.92170214     0.93600
O2089       O  0.84831956  0.00505515  0.96602320    -0.81800
C2090       C  0.86498006  0.01088272  0.98389542     0.93600
O2091       O  0.67061623  0.49041622  0.94120731    -0.81800
Mg2092     Mg  0.70051252  0.49810911  0.03689790     1.58200
O2093       O  0.79518120  0.46778905  0.93484703    -0.80200
O2094       O  0.76049906  0.06200185  0.07551544    -0.81800
O2095       O  0.75142688  0.23355982  0.96125323    -0.87400
C2096       C  0.76888634  0.31816034  0.98458031     0.88600
Mg2097     Mg  0.70866686  0.19092326  0.96742177     1.58100
O2098       O  0.81178392  0.28654221  0.00996217    -0.87200
O2099       O  0.80247391  0.25593713  0.96062946    -0.74500
C2100       C  0.69362768  0.18949676  0.07994508     0.93600
O2101       O  0.70140635  0.25629218  0.97084613    -0.74300
O2102       O  0.67646390  0.17725201  0.06241717    -0.81800
Mg2103     Mg  0.74558011  0.27074320  0.94825621     1.58000
C2104       C  0.81399648  0.28430550  0.08079131     0.93600
O2105       O  0.78693283  0.28495323  0.92356888    -0.80100
H2106       H  0.83973102  0.26831896  0.00679581    -0.05400
C2107       C  0.73026320  0.26928744  0.04438001     0.88500
O2108       O  0.73087345  0.17608342  0.99557160    -0.74600
O2109       O  0.77476033  0.29902007  0.97582328    -0.87400
O2110       O  0.82038287  0.30284066  0.06389456    -0.80200
C2111       C  0.85671344  0.36816539  0.00918433     0.93700
C2112       C  0.80982315  0.31230543  0.92155619     0.93500
Mg2113     Mg  0.75924204  0.22998085  0.05226524     1.58000
O2114       O  0.71883924  0.21531781  0.07829066    -0.80100
O2115       O  0.80278666  0.24442448  0.02889886    -0.74300
O2116       O  0.84637691  0.35629802  0.98935509    -0.80200
O2117       O  0.71476720  0.24234052  0.91865266    -0.81900
O2118       O  0.65806401  0.14666581  0.01177434    -0.80200
C2119       C  0.81918707  0.26687010  0.01497981     0.88000
O2120       O  0.72960547  0.20212081  0.02530878    -0.87300
O2121       O  0.75413619  0.26797775  0.03996514    -0.87400
O2122       O  0.70323274  0.24658361  0.04033133    -0.74500
Mg2123     Mg  0.82088709  0.30533980  0.97533926     1.58000
O2124       O  0.84317136  0.35445921  0.02794689    -0.81900
H2125       H  0.77385589  0.21190329  0.94967251    -0.05600
O2126       O  0.69408562  0.21559515  0.99089193    -0.87100
H2127       H  0.66458372  0.23211945  0.99301263    -0.05400
H2128       H  0.74550200  0.17227548  0.02745386    -0.05600
C2129       C  0.68559400  0.23421158  0.98517391     0.87900
C2130       C  0.77559073  0.23273993  0.95687314     0.88500
C2131       C  0.73550720  0.18288242  0.01679683     0.88600
H2132       H  0.73240655  0.29022043  0.05172548    -0.05600
O2133       O  0.77451496  0.32541909  0.00569500    -0.74600
Mg2134     Mg  0.68417757  0.19725099  0.02559644     1.58000
H2135       H  0.75842414  0.32856197  0.97420263    -0.05600
C2136       C  0.69077925  0.21547538  0.91993131     0.93600
O2137       O  0.66291359  0.14744506  0.97325671    -0.81800
C2138       C  0.64853802  0.13446802  0.99194040     0.93600
O2139       O  0.82733233  0.32572654  0.93869522    -0.81800
Mg2140     Mg  0.79710089  0.31064711  0.03379675     1.58200
O2141       O  0.68494204  0.19794370  0.93737040    -0.80200
O2142       O  0.79026333  0.25735475  0.08124915    -0.81800
O2143       O  0.51311130  0.26959351  0.04591643    -0.87400
C2144       C  0.95636506  0.18333808  0.01215217     0.88600
Mg2145     Mg  0.50487234  0.30769759  0.03814046     1.58100
O2146       O  0.54359549  0.23099311  0.99461998    -0.87200
O2147       O  0.54946994  0.25652705  0.04617755    -0.74500
C2148       C  0.51679819  0.32330577  0.92466280     0.93600
O2149       O  0.93403909  0.23412889  0.02609240    -0.74300
O2150       O  0.49884060  0.32227222  0.94103630    -0.81800
Mg2151     Mg  0.96150886  0.22217943  0.05192958     1.58000
C2152       C  0.56711210  0.24480786  0.92309813     0.93600
O2153       O  0.98079346  0.20461347  0.08101193    -0.80100
H2154       H  0.58881025  0.25353064  0.00268876    -0.05400
C2155       C  0.97419646  0.23525374  0.95346674     0.88500
O2156       O  0.54723698  0.33054448  0.01326021    -0.74600
O2157       O  0.97656629  0.20288078  0.02472881    -0.87400
O2158       O  0.55264895  0.22170354  0.93709969    -0.80200
C2159       C  0.00828953  0.14634319  0.99651680     0.93700
C2160       C  0.98983231  0.18471126  0.08141340     0.93500
Mg2161     Mg  0.54933179  0.28859542  0.95393786     1.58000
O2162       O  0.53161864  0.30844732  0.92564365    -0.80100
O2163       O  0.57648858  0.27644684  0.97985115    -0.74300
O2164       O  0.00532170  0.15791438  0.01529951    -0.80200
O2165       O  0.94582134  0.24245754  0.08018637    -0.81900
O2166       O  0.49849929  0.34615736  0.98965389    -0.83800
C2167       C  0.57036306  0.25329372  0.99267400     0.88000
O2168       O  0.53204310  0.30582135  0.98067305    -0.87300
O2169       O  0.00045020  0.24109705  0.95960796    -0.87400
O2170       O  0.96315091  0.25275878  0.95863358    -0.74500
Mg2171     Mg  0.52916021  0.20875604  0.02830535     1.58000
O2172       O  0.01317890  0.16034376  0.97697822    -0.81900
H2173       H  0.55477501  0.29631803  0.06018966    -0.05600
O2174       O  0.96756666  0.27876220  0.01041680    -0.87100
H2175       H  0.92216661  0.25702249  0.00287170    -0.05400
H2176       H  0.57492547  0.34222040  0.98438926    -0.05600
C2177       C  0.94054302  0.25700488  0.01281206     0.87900
C2178       C  0.53956132  0.27507664  0.05123140     0.88500
C2179       C  0.55223479  0.32694127  0.99221858     0.88600
H2180       H  0.95989168  0.21420445  0.94402118    -0.05600
O2181       O  0.96245452  0.18011885  0.99122516    -0.74600
Mg2182     Mg  0.98193510  0.30001774  0.97628019     1.58000
H2183       H  0.93287313  0.16899489  0.01899335    -0.05600
C2184       C  0.94653418  0.26810791  0.08292782     0.93600
O2185       O  0.49487081  0.34704174  0.02821506    -0.81800
C2186       C  0.49672592  0.35884366  0.00813302     0.93600
O2187       O  0.00414286  0.18125862  0.06424676    -0.81800
Mg2188     Mg  0.00647404  0.20188048  0.96749083     1.58200
O2189       O  0.96003889  0.29054862  0.06832000    -0.80200
O2190       O  0.56739004  0.27026882  0.92581463    -0.81800
O2191       O  0.69856970  0.08110015  0.62934776    -0.87400
C2192       C  0.63431369  0.10968282  0.63616261     0.88600
Mg2193     Mg  0.68550477  0.03383359  0.63680089     1.58100
O2194       O  0.68892638  0.13212489  0.68126594    -0.87200
O2195       O  0.73170907  0.12699899  0.64203388    -0.74500
C2196       C  0.60910035  0.99795304  0.73767543     0.93600
O2197       O  0.62566318  0.04201921  0.61784217    -0.74300
O2198       O  0.61795895  0.49809373  0.72041250    -0.81800
Mg2199     Mg  0.66895346  0.08784751  0.60589712     1.58000
C2200       C  0.65372111  0.12647552  0.74797383     0.93600
O2201       O  0.70701109  0.13332264  0.58855587    -0.80100
H2202       H  0.73254884  0.15591923  0.69296223    -0.05400
C2203       C  0.60403517  0.05833899  0.69519014     0.88500
O2204       O  0.70459263  0.04671997  0.67378383    -0.74600
O2205       O  0.66103500  0.11383240  0.63323271    -0.87400
O2206       O  0.66321311  0.14106862  0.72885313    -0.80200
C2207       C  0.67178581  0.19298580  0.66939877     0.93700
C2208       C  0.71946029  0.16216928  0.59286405     0.93500
Mg2209     Mg  0.66037231  0.07138151  0.72359020     1.58000
O2210       O  0.62192140  0.02697895  0.74123759    -0.80100
O2211       O  0.70407769  0.11637915  0.71110374    -0.74300
O2212       O  0.68600350  0.18648326  0.65376322    -0.80200
O2213       O  0.68074903  0.06139054  0.57845109    -0.81900
O2214       O  0.65016519  0.47697611  0.68209039    -0.80200
C2215       C  0.70946262  0.13587315  0.69494985     0.88000
O2216       O  0.66763306  0.04462723  0.69664151    -0.87300
O2217       O  0.63112028  0.07779400  0.69988192    -0.87400
O2218       O  0.59737680  0.03208826  0.68725095    -0.74500
Mg2219     Mg  0.70378413  0.15195134  0.64776339     1.58000
O2220       O  0.65645643  0.17419420  0.68572658    -0.81900
H2221       H  0.74395527  0.09540995  0.63221345    -0.05600
O2222       O  0.64029343  0.02600449  0.64783578    -0.87100
H2223       H  0.59714955  0.00188656  0.63533304    -0.05400
H2224       H  0.70952465  0.05464644  0.70838083    -0.05600
C2225       C  0.62009790  0.02222465  0.63381370     0.87900
C2226       C  0.72554971  0.10085484  0.63409301     0.88500
C2227       C  0.69426452  0.04861771  0.69367545     0.88600
H2228       H  0.58581176  0.06427318  0.69702967    -0.05600
O2229       O  0.62389947  0.11154858  0.65604518    -0.74600
Mg2230     Mg  0.62490970  0.00674042  0.68209153     1.58000
H2231       H  0.61907163  0.10355427  0.62143998    -0.05600
C2232       C  0.67902161  0.03495669  0.58003423     0.93600
O2233       O  0.68213848  0.48588732  0.65177958    -0.81800
C2234       C  0.66454793  0.46841774  0.66810348     0.93600
O2235       O  0.71885498  0.17236357  0.61282372    -0.81800
Mg2236     Mg  0.64430440  0.12480967  0.69265335     1.58200
O2237       O  0.67080424  0.01928213  0.59891822    -0.80200
O2238       O  0.64922740  0.09904522  0.75049895    -0.81800
C2239       C  0.64317007  0.21240740  0.86902888    -0.09900
C2240       C  0.62392950  0.22111848  0.88067937    -0.03800
C2241       C  0.59514812  0.21491034  0.87203753    -0.09900
C2242       C  0.58643864  0.20148864  0.84976045     0.11000
C2243       C  0.60548810  0.19164881  0.83796919    -0.01700
C2244       C  0.63347890  0.19625689  0.84807114     0.10800
C2245       C  0.65030032  0.18359591  0.83749951    -0.11700
C2246       C  0.63974914  0.16648383  0.81730518    -0.11700
C2247       C  0.61318416  0.16322034  0.80610093     0.10800
C2248       C  0.59617670  0.17646825  0.81633849    -0.01700
C2249       C  0.55968713  0.19803607  0.83877714    -0.11900
C2250       C  0.55194807  0.18543419  0.81658642    -0.11900
C2251       C  0.56963438  0.17415332  0.80522032     0.11000
C2252       C  0.56127741  0.16003362  0.78324773    -0.09900
C2253       C  0.57718693  0.14560297  0.77405728    -0.03800
C2254       C  0.60252564  0.14638715  0.78529844    -0.09900
H2255       H  0.67128672  0.18605152  0.84517188     0.08300
H2256       H  0.65288804  0.15610614  0.81056146     0.08300
H2257       H  0.54503741  0.20585860  0.84701654     0.08500
H2258       H  0.53144684  0.18375679  0.80864376     0.08500
H2259       H  0.63094176  0.23125321  0.89768120     0.04900
H2260       H  0.56989270  0.13379396  0.75761183     0.04900
C2261       C  0.60655495  0.44678630  0.88744163    -0.09900
C2262       C  0.58987098  0.41681262  0.89698073    -0.03800
C2263       C  0.56608122  0.39223486  0.88499256    -0.09900
C2264       C  0.55800969  0.39788784  0.86288209     0.11000
C2265       C  0.57484528  0.42826212  0.85285165    -0.01700
C2266       C  0.59963950  0.45270820  0.86496652     0.10800
C2267       C  0.61708215  0.48202350  0.85411798    -0.11700
C2268       C  0.61024353  0.48735055  0.83169222    -0.11700
C2269       C  0.58508386  0.46383029  0.81966430     0.10800
C2270       C  0.56727332  0.43396175  0.83043729    -0.01700
C2271       C  0.53424350  0.37384160  0.85028153    -0.11900
C2272       C  0.52658028  0.37948579  0.82846040    -0.11900
C2273       C  0.54264668  0.40930616  0.81838307     0.11000
C2274       C  0.53424440  0.41522632  0.79666690    -0.09900
C2275       C  0.54966759  0.44519731  0.78745185    -0.03800
C2276       C  0.57709514  0.46873835  0.79707820    -0.09900
H2277       H  0.63637758  0.50099882  0.86285973     0.08300
H2278       H  0.62442531  0.51021325  0.82406604     0.08300
H2279       H  0.52121125  0.35045284  0.85723461     0.08500
H2280       H  0.50760004  0.36028486  0.81965146     0.08500
H2281       H  0.59599199  0.41240013  0.91399892     0.04900
H2282       H  0.54236091  0.44928728  0.77081532     0.04900
O2283       O  0.90109195  0.07035741  0.70945165    -0.87400
C2284       C  0.98138805  0.09740690  0.67054130     0.88600
Mg2285     Mg  0.85714229  0.02914796  0.70256365     1.58100
O2286       O  0.94638320  0.14324858  0.66168593    -0.87200
O2287       O  0.92180000  0.12051898  0.71382648    -0.74500
C2288       C  0.83787509  0.03956304  0.59029212     0.93600
O2289       O  0.92319349  0.02691784  0.68274520    -0.74300
O2290       O  0.83301592  0.01890125  0.60546485    -0.81800
Mg2291     Mg  0.94155073  0.06409010  0.71071942     1.58000
C2292       C  0.93314954  0.16343626  0.59356472     0.93600
O2293       O  0.96344385  0.09747293  0.74076303    -0.80100
H2294       H  0.93056728  0.17026885  0.67440287    -0.05400
C2295       C  0.92427731  0.07395394  0.61460429     0.88500
O2296       O  0.83898109  0.05686189  0.68282332    -0.74600
O2297       O  0.96475635  0.10069955  0.68513343    -0.87400
O2298       O  0.95564042  0.16581413  0.60564334    -0.80200
C2299       C  0.52936651  0.18753703  0.65841692     0.93700
C2300       C  0.98569876  0.12505382  0.74356266     0.93500
Mg2301     Mg  0.88214507  0.10180013  0.62296937     1.58000
O2302       O  0.85758812  0.06821056  0.59318513    -0.80100
O2303       O  0.90187880  0.13867426  0.65123671    -0.74300
O2304       O  0.51764472  0.17485450  0.67803927    -0.80200
O2305       O  0.91809328  0.02511548  0.73760059    -0.81900
O2306       O  0.81080938  0.48518420  0.66337723    -0.80200
C2307       C  0.92685268  0.15184028  0.66272468     0.88000
O2308       O  0.85959881  0.06456608  0.64805949    -0.87300
O2309       O  0.92285615  0.09587818  0.62329032    -0.87400
O2310       O  0.90391881  0.04601188  0.61923848    -0.74500
Mg2311     Mg  0.96901168  0.14474226  0.69378012     1.58000
O2312       O  0.51484572  0.17754152  0.63954273    -0.81900
H2313       H  0.88061831  0.08865370  0.72885902    -0.05600
O2314       O  0.87944852  0.02324733  0.67154345    -0.87100
H2315       H  0.89463297  0.99538585  0.65947077    -0.05400
H2316       H  0.82952691  0.07868786  0.65714172    -0.05600
C2317       C  0.89850160  0.01406075  0.67097348     0.87900
C2318       C  0.90031415  0.09275099  0.71796949     0.88500
C2319       C  0.84197555  0.06696629  0.66221910     0.88600
H2320       H  0.94390391  0.07868174  0.60337282    -0.05600
O2321       O  0.98414646  0.10750300  0.64992344    -0.74600
Mg2322     Mg  0.85725889  0.02107616  0.63936952     1.58000
H2323       H  0.99325386  0.08493173  0.67528212    -0.05600
C2324       C  0.89022648  0.00270760  0.73998217     0.93600
O2325       O  0.81547620  0.48571022  0.70176726    -0.81800
C2326       C  0.80057694  0.47353293  0.68343792     0.93600
O2327       O  0.99371713  0.14605124  0.72793247    -0.81800
Mg2328     Mg  0.96711310  0.13634578  0.63018026     1.58200
O2329       O  0.86826993  0.00012194  0.72726665    -0.80200
O2330       O  0.90523853  0.14122230  0.59642619    -0.81800
O2331       O  0.91170360  0.36019831  0.70245425    -0.87400
C2332       C  0.93485625  0.29202654  0.70358699     0.88600
Mg2333     Mg  0.86815321  0.35457333  0.69120455     1.58100
O2334       O  0.97415837  0.35043375  0.66122326    -0.87200
O2335       O  0.96202267  0.39090514  0.69730021    -0.74500
C2336       C  0.85361407  0.28987161  0.58876296     0.93600
O2337       O  0.86639663  0.28692548  0.70897853    -0.74300
O2338       O  0.83660814  0.29211390  0.60460571    -0.81800
Mg2339     Mg  0.90957594  0.32620545  0.72647406     1.58000
C2340       C  0.97748990  0.32219163  0.59439165     0.93600
O2341       O  0.94900622  0.36351001  0.74718235    -0.80100
H2342       H  0.00224011  0.39500928  0.65249972    -0.05400
C2343       C  0.89521731  0.27257490  0.63935279     0.88500
O2344       O  0.89023464  0.37733722  0.65612939    -0.74600
O2345       O  0.94067087  0.31913451  0.70493397    -0.87400
O2346       O  0.98636725  0.32152430  0.61483971    -0.80200
C2347       C  0.52306523  0.32053332  0.68317344     0.93700
C2348       C  0.97811409  0.37472083  0.74962160     0.93500
Mg2349     Mg  0.92202746  0.33363338  0.61372050     1.58000
O2350       O  0.88231108  0.29877272  0.59153188    -0.80100
O2351       O  0.96505933  0.37214721  0.63156288    -0.74300
O2352       O  0.51553658  0.33566558  0.69705843    -0.80200
O2353       O  0.87876299  0.33373880  0.75014710    -0.81900
O2354       O  0.81653501  0.32456302  0.64425140    -0.80200
C2355       C  0.98162696  0.37322296  0.64852500     0.88000
O2356       O  0.89066265  0.34081048  0.63570754    -0.87300
O2357       O  0.91840082  0.29880974  0.63773867    -0.87400
O2358       O  0.86785736  0.26856781  0.64207480    -0.74500
Mg2359     Mg  0.98471679  0.36021050  0.69685375     1.58000
O2360       O  0.50795516  0.30825280  0.66483358    -0.81900
H2361       H  0.93102663  0.40630288  0.70015971    -0.05600
O2362       O  0.85567580  0.30829773  0.67978871    -0.87100
H2363       H  0.82882021  0.26349543  0.68846012    -0.05400
H2364       H  0.90554840  0.38329537  0.62266948    -0.05600
C2365       C  0.84916917  0.28551227  0.69230876     0.87900
C2366       C  0.93456526  0.38652870  0.70018318     0.88500
C2367       C  0.89564355  0.36760199  0.63734357     0.88600
H2368       H  0.89835181  0.25257098  0.63888903    -0.05600
O2369       O  0.93890063  0.28134785  0.68478979    -0.74600
Mg2370     Mg  0.84606220  0.30012507  0.64333353     1.58000
H2371       H  0.92486990  0.27674434  0.71847305    -0.05600
C2372       C  0.85566597  0.33777185  0.74788368     0.93600
O2373       O  0.82290957  0.34899685  0.67791488    -0.81800
C2374       C  0.80851933  0.33843947  0.65904554     0.93600
O2375       O  0.49561465  0.37038886  0.73400563    -0.81800
Mg2376     Mg  0.96173973  0.30436159  0.65016999     1.58200
O2377       O  0.84537401  0.33935338  0.72804339    -0.80200
O2378       O  0.95386567  0.32512115  0.59036628    -0.81800
C2379       C  0.82028219  0.42507808  0.88213945    -0.09900
C2380       C  0.82251969  0.40189867  0.89412124    -0.03800
C2381       C  0.82753014  0.38010616  0.88251376    -0.09900
C2382       C  0.82750887  0.37979939  0.85797393     0.11000
C2383       C  0.82882922  0.40529331  0.84581861    -0.01700
C2384       C  0.82683218  0.42892737  0.85808704     0.10800
C2385       C  0.83142500  0.45549678  0.84599702    -0.11700
C2386       C  0.83875495  0.45910742  0.82230012    -0.11700
C2387       C  0.83893810  0.43507482  0.80964033     0.10800
C2388       C  0.83233561  0.40726198  0.82136299    -0.01700
C2389       C  0.82611019  0.35512984  0.84522230    -0.11900
C2390       C  0.82476772  0.35504132  0.82107692    -0.11900
C2391       C  0.82926538  0.38145229  0.80872107     0.11000
C2392       C  0.83075401  0.38319303  0.78414908    -0.09900
C2393       C  0.83987667  0.41161246  0.77314657    -0.03800
C2394       C  0.84562052  0.43788597  0.78558775    -0.09900
H2395       H  0.83052668  0.47414236  0.85496166     0.08300
H2396       H  0.84328831  0.48043306  0.81381513     0.08300
H2397       H  0.82477453  0.33511765  0.85372218     0.08500
H2398       H  0.82098527  0.33432183  0.81231791     0.08500
H2399       H  0.82016980  0.40073547  0.91288195     0.04900
H2400       H  0.84315562  0.41352501  0.75444615     0.04900
C2401       C  0.49917920  0.22610204  0.45003151    -0.09900
C2402       C  0.50503087  0.25266713  0.43753452    -0.03800
C2403       C  0.50746286  0.27881244  0.44839269    -0.09900
C2404       C  0.50203575  0.27796240  0.47252271     0.11000
C2405       C  0.49509989  0.25083207  0.48553229    -0.01700
C2406       C  0.49401527  0.22488340  0.47433836     0.10800
C2407       C  0.48672132  0.19826927  0.48760437    -0.11700
C2408       C  0.98070786  0.20214366  0.51102639    -0.11700
C2409       C  0.98111818  0.22747242  0.52219039     0.10800
C2410       C  0.98878933  0.25458129  0.50891287    -0.01700
C2411       C  0.50212221  0.30297876  0.48379713    -0.11900
C2412       C  0.99577965  0.30663236  0.50618312    -0.11900
C2413       C  0.98867325  0.28025592  0.51955975     0.11000
C2414       C  0.98135537  0.27889824  0.54335492    -0.09900
C2415       C  0.97361400  0.25202869  0.55614958    -0.03800
C2416       C  0.97306668  0.22623303  0.54606303    -0.09900
H2417       H  0.48527664  0.17796375  0.47958327     0.08300
H2418       H  0.97458596  0.18097634  0.52047317     0.08300
H2419       H  0.50652393  0.32368374  0.47445520     0.08500
H2420       H  0.99596354  0.32659630  0.51379654     0.08500
H2421       H  0.50887267  0.25342030  0.41891154     0.04900
H2422       H  0.96753814  0.25107868  0.57439270     0.04900
C2423       C  0.70222952  0.25029976  0.46620368    -0.09900
C2424       C  0.71918726  0.28142374  0.45923467    -0.03800
C2425       C  0.74995360  0.30053361  0.46592426    -0.09900
C2426       C  0.76184854  0.29097172  0.48421872     0.11000
C2427       C  0.74383005  0.26030205  0.49330416    -0.01700
C2428       C  0.71400534  0.23961400  0.48406756     0.10800
C2429       C  0.69734999  0.20895375  0.49261219    -0.11700
C2430       C  0.70956884  0.19882796  0.51010516    -0.11700
C2431       C  0.73924620  0.21878718  0.51915438     0.10800
C2432       C  0.75647376  0.24985736  0.51071965    -0.01700
C2433       C  0.79139823  0.31098529  0.49330767    -0.11900
C2434       C  0.80282514  0.30138326  0.51155077    -0.11900
C2435       C  0.78586210  0.27091700  0.52034306     0.11000
C2436       C  0.79795315  0.26071318  0.53813071    -0.09900
C2437       C  0.78275273  0.22921433  0.54379456    -0.03800
C2438       C  0.75230271  0.20896057  0.53662576    -0.09900
H2439       H  0.67458491  0.19265035  0.48597184     0.08300
H2440       H  0.69580902  0.17507307  0.51617630     0.08300
H2441       H  0.80554821  0.33446480  0.48672062     0.08500
H2442       H  0.82559445  0.31765660  0.51820655     0.08500
H2443       H  0.71022832  0.28947354  0.44540558     0.04900
H2444       H  0.79229169  0.22114660  0.55713719     0.04900
C2445       C  0.72509923  0.45755080  0.45334794    -0.09900
C2446       C  0.75134775  0.45460756  0.44844878    -0.03800
C2447       C  0.77645308  0.46529646  0.46359760    -0.09900
C2448       C  0.77516215  0.47865265  0.48494830     0.11000
C2449       C  0.74834865  0.48097114  0.49071844    -0.01700
C2450       C  0.72360439  0.47099602  0.47466953     0.10800
C2451       C  0.69852703  0.47576564  0.48008010    -0.11700
C2452       C  0.70665724  0.00832901  0.50042536    -0.11700
C2453       C  0.73344966  0.02024149  0.51398563     0.10800
C2454       C  0.75950980  0.01789202  0.50576093    -0.01700
C2455       C  0.79993495  0.49005818  0.50052906    -0.11900
C2456       C  0.81238927  0.02708751  0.51084594    -0.11900
C2457       C  0.78635147  0.02831312  0.51968132     0.11000
C2458       C  0.78680049  0.04070803  0.54176389    -0.09900
C2459       C  0.76186041  0.04471406  0.54891857    -0.03800
C2460       C  0.73518746  0.03466501  0.53549635    -0.09900
H2461       H  0.68023650  0.47070349  0.46789427     0.08300
H2462       H  0.68605048  0.00904039  0.50647709     0.08300
H2463       H  0.82100150  0.48927474  0.49641929     0.08500
H2464       H  0.83342268  0.03517306  0.52094175     0.08500
H2465       H  0.75231827  0.44354199  0.43253684     0.04900
H2466       H  0.76303403  0.05549892  0.56544963     0.04900
O2467       O  0.51088403  0.46180032  0.02076719    -0.87400
C2468       C  0.55952087  0.01928148  0.96866595     0.88600
Mg2469     Mg  0.96205949  0.43051085  0.02235719     1.58100
O2470       O  0.54344964  0.05663453  0.01440408    -0.87200
O2471       O  0.54272857  0.00161272  0.04454255    -0.74500
C2472       C  0.89702625  0.50968467  0.98315694     0.93600
O2473       O  0.50033593  0.44749411  0.96588376    -0.74300
O2474       O  0.89453593  0.48318111  0.98006627    -0.81800
Mg2475     Mg  0.53978398  0.46157896  0.99184846     1.58000
C2476       C  0.51079879  0.11804290  0.99565418     0.93600
O2477       O  0.58369388  0.47116490  0.01150877    -0.80100
H2478       H  0.54720454  0.06941073  0.04751544    -0.05400
C2479       C  0.98103474  0.03099213  0.96084285     0.88500
O2480       O  0.94812525  0.46252322  0.04076872    -0.74600
O2481       O  0.55484490  0.01020488  0.98900110    -0.87400
O2482       O  0.53396623  0.11431014  0.99079998    -0.80200
C2483       C  0.61802514  0.10632218  0.99078091     0.93700
C2484       C  0.60741130  0.99505378  0.01871526     0.93500
Mg2485     Mg  0.96233875  0.04148596  0.00906247     1.58000
O2486       O  0.91913207  0.03204758  0.98850846    -0.80100
O2487       O  0.00177490  0.05462189  0.03498214    -0.74300
O2488       O  0.61463350  0.08141110  0.99964678    -0.80200
O2489       O  0.52364339  0.41165265  0.99893988    -0.81900
O2490       O  0.89005088  0.42143008  0.00064663    -0.80200
C2491       C  0.53293629  0.06187392  0.03226375     0.88000
O2492       O  0.94814720  0.49357767  0.01411655    -0.87300
O2493       O  0.99115792  0.04182698  0.98005428    -0.87400
O2494       O  0.96268597  0.50540809  0.95900236    -0.74500
Mg2495     Mg  0.57566347  0.03941259  0.01880970     1.58000
O2496       O  0.59524632  0.10871649  0.98313073    -0.81900
H2497       H  0.51034057  0.45733984  0.05521556    -0.05600
O2498       O  0.96217228  0.44947570  0.98806487    -0.87100
H2499       H  0.95958090  0.43746339  0.95483338    -0.05400
H2500       H  0.93480432  0.49442720  0.04682386    -0.05600
C2501       C  0.97343545  0.44498148  0.97028454     0.87900
C2502       C  0.52122684  0.47183256  0.04006449     0.88500
C2503       C  0.94289388  0.48379513  0.03426074     0.88600
H2504       H  0.99198025  0.04502741  0.94551018    -0.05600
O2505       O  0.55518248  0.04111721  0.96202312    -0.74600
Mg2506     Mg  0.92925352  0.46575047  0.98328797     1.58000
H2507       H  0.56650450  0.00770341  0.95610118    -0.05600
C2508       C  0.99729547  0.39010126  0.00746135     0.93600
O2509       O  0.91003835  0.39558967  0.01865156    -0.81800
C2510       C  0.88702951  0.39695808  0.01018712     0.93600
O2511       O  0.60991825  0.02159629  0.02129506    -0.81800
Mg2512     Mg  0.54320336  0.07499633  0.98003416     1.58200
O2513       O  0.97324140  0.39262650  0.01157970    -0.80200
O2514       O  0.97919064  0.09247199  0.00333281    -0.81800
O2515       O  0.81912919  0.20805953  0.34886941    -0.87400
C2516       C  0.78190766  0.14470936  0.29639652     0.88600
Mg2517     Mg  0.86741832  0.24585976  0.34616316     1.58100
O2518       O  0.79700840  0.11650670  0.34802631    -0.87200
O2519       O  0.78581744  0.16846022  0.37022355    -0.74500
C2520       C  0.94921081  0.17765241  0.32622311     0.93600
O2521       O  0.83566515  0.21948247  0.29439123    -0.74300
O2522       O  0.95056902  0.20370997  0.32469509    -0.81800
Mg2523     Mg  0.79214613  0.20272851  0.31869069     1.58000
C2524       C  0.84093500  0.06348278  0.34101891     0.93600
O2525       O  0.74520396  0.18724806  0.33867910    -0.80100
H2526       H  0.78985550  0.10669225  0.38195388    -0.05400
C2527       C  0.86462662  0.14409676  0.29705212     0.88500
O2528       O  0.88271492  0.21915740  0.37067671    -0.74600
O2529       O  0.78240457  0.15533420  0.31579261    -0.87400
O2530       O  0.81577590  0.06341739  0.33670554    -0.80200
C2531       C  0.72841391  0.05729891  0.32177231     0.93700
C2532       C  0.71998953  0.16106592  0.34028871     0.93500
Mg2533     Mg  0.87770321  0.13846507  0.34673323     1.58000
O2534       O  0.92329916  0.15224218  0.32623177    -0.80100
O2535       O  0.83447162  0.12217978  0.37072088    -0.74300
O2536       O  0.72795144  0.08230255  0.32515130    -0.80200
O2537       O  0.80265610  0.25271970  0.32318983    -0.81900
O2538       O  0.94249315  0.25791461  0.33998478    -0.80200
C2539       C  0.80615164  0.11451477  0.36741516     0.88000
O2540       O  0.88773945  0.18598656  0.34895846    -0.87300
O2541       O  0.85172676  0.13358041  0.31606305    -0.87400
O2542       O  0.88605056  0.17227991  0.29457580    -0.74500
Mg2543     Mg  0.75963919  0.12655091  0.34571614     1.58000
O2544       O  0.75382802  0.05684966  0.32006185    -0.81900
H2545       H  0.81455325  0.21139225  0.38307849    -0.05600
O2546       O  0.87367470  0.22425841  0.31607302    -0.87100
H2547       H  0.87967007  0.23379806  0.28206510    -0.05400
H2548       H  0.89621497  0.18935545  0.38292396    -0.05600
C2549       C  0.86392754  0.22625873  0.29693689     0.87900
C2550       C  0.80694179  0.19683778  0.36795134     0.88500
C2551       C  0.88928835  0.19766306  0.36808910     0.88600
H2552       H  0.85733214  0.12910208  0.28216410    -0.05600
O2553       O  0.78937549  0.12392774  0.29336743    -0.74600
Mg2554     Mg  0.91140535  0.21401112  0.31913039     1.58000
H2555       H  0.77539150  0.15354633  0.28167258    -0.05600
C2556       C  0.82863450  0.27792050  0.32446344     0.93600
O2557       O  0.91792984  0.28498300  0.34128667    -0.81800
C2558       C  0.94298610  0.28367370  0.34053607     0.93600
O2559       O  0.72006156  0.13576351  0.34185569    -0.81800
Mg2560     Mg  0.80389229  0.09625015  0.31732538     1.58200
O2561       O  0.85443245  0.27814510  0.32610405    -0.80200
O2562       O  0.86680251  0.08842971  0.34359532    -0.81800
O2563       O  0.65035121  0.36444203  0.69220353    -0.87400
C2564       C  0.60927041  0.30634139  0.63793505     0.88600
Mg2565     Mg  0.69755090  0.40192365  0.69111963     1.58100
O2566       O  0.62915651  0.27407620  0.68515278    -0.87200
O2567       O  0.61833589  0.32395104  0.71312685    -0.74500
C2568       C  0.78004646  0.34004308  0.65558940     0.93600
O2569       O  0.66371724  0.38060776  0.63797706    -0.74300
O2570       O  0.78121397  0.36604162  0.65714953    -0.81800
Mg2571     Mg  0.62208228  0.36245335  0.66389799     1.58000
C2572       C  0.67326093  0.22317138  0.66868960     0.93600
O2573       O  0.57771732  0.34593596  0.68717252    -0.80100
H2574       H  0.62559897  0.26103475  0.71839918    -0.05400
C2575       C  0.69322899  0.30824761  0.63116268     0.88500
O2576       O  0.71374441  0.37239482  0.71107935    -0.74600
O2577       O  0.61162308  0.31510946  0.65816437    -0.87400
O2578       O  0.64790065  0.22360667  0.66667511    -0.80200
C2579       C  0.55936124  0.21654780  0.65869867     0.93700
C2580       C  0.55215324  0.32007866  0.68672600     0.93500
Mg2581     Mg  0.71045696  0.29756662  0.67777981     1.58000
O2582       O  0.75416647  0.31483326  0.65371025    -0.80100
O2583       O  0.66906520  0.27805336  0.70409794    -0.74300
O2584       O  0.55942487  0.23987070  0.66776049    -0.80200
O2585       O  0.63402489  0.41321944  0.66965180    -0.81900
O2586       O  0.77285842  0.42022535  0.67640472    -0.80200
C2587       C  0.64038743  0.27044954  0.70309888     0.88000
O2588       O  0.72039090  0.34455481  0.68478604    -0.87300
O2589       O  0.68157214  0.29577430  0.65003525    -0.87400
O2590       O  0.71460485  0.33656139  0.62977133    -0.74500
Mg2591     Mg  0.59148223  0.28410503  0.68750099     1.58000
O2592       O  0.58433336  0.21707150  0.65234720    -0.81900
H2593       H  0.64732653  0.36627330  0.72668682    -0.05600
O2594       O  0.70350031  0.38558328  0.65765413    -0.87100
H2595       H  0.70730941  0.39719258  0.62406898    -0.05400
H2596       H  0.72948016  0.34257760  0.71820398    -0.05600
C2597       C  0.69239677  0.38842536  0.63937312     0.87900
C2598       C  0.63906824  0.35241149  0.71125634     0.88500
C2599       C  0.72180758  0.35277137  0.70512236     0.88600
H2600       H  0.68503275  0.29483759  0.61549573    -0.05600
O2601       O  0.61722528  0.28671157  0.63185740    -0.74600
Mg2602     Mg  0.74131354  0.37610665  0.65590212     1.58000
H2603       H  0.60093470  0.31612493  0.62502352    -0.05600
C2604       C  0.66093893  0.43745068  0.67094696     0.93600
O2605       O  0.74642053  0.44230410  0.69022237    -0.81800
C2606       C  0.77178490  0.44356483  0.68434970     0.93600
O2607       O  0.55161929  0.29428922  0.68654118    -0.81800
Mg2608     Mg  0.63419762  0.25761666  0.65131799     1.58200
O2609       O  0.68533634  0.43590163  0.67463711    -0.80200
O2610       O  0.69960915  0.24794386  0.67017858    -0.81800
C2611       C  0.82550917  0.35751553  0.76848519    -0.15500
C2612       C  0.84420634  0.34528827  0.76917118    -0.30700
H2613       H  0.81357417  0.35597921  0.75244574     0.13500
H2614       H  0.85816401  0.34879831  0.78442855     0.14100
C2615       C  0.83966314  0.27522972  0.56675244    -0.15500
C2616       C  0.82077965  0.28241989  0.55505323    -0.30700
H2617       H  0.84397403  0.25706665  0.56057508     0.13500
H2618       H  0.81869930  0.30228795  0.56035865     0.14100
C2619       C  0.97829495  0.30360120  0.55530133    -0.15500
C2620       C  0.99285939  0.31490039  0.57538446    -0.30700
H2621       H  0.95905902  0.30695784  0.55026125     0.13500
H2622       H  0.01180845  0.31085577  0.58002378     0.14100
C2623       C  0.88642791  0.48130342  0.76224060    -0.15500
C2624       C  0.85766461  0.46731700  0.77234088    -0.30700
H2625       H  0.90122630  0.97291531  0.76148983     0.13500
H2626       H  0.84155283  0.47569731  0.76892735     0.14100
C2627       C  0.81313322  0.05088228  0.55789477    -0.15500
C2628       C  0.81823923  0.03034386  0.56947022    -0.30700
H2629       H  0.82476491  0.07504232  0.56326118     0.13500
H2630       H  0.80432580  0.00572214  0.56551764     0.14100
C2631       C  0.96475926  0.19902053  0.56148447    -0.15500
C2632       C  0.93949826  0.18738874  0.57583217    -0.30700
H2633       H  0.98013696  0.18926598  0.56170567     0.13500
H2634       H  0.92278509  0.19543944  0.57428110     0.14100
C2635       C  0.51343976  0.39023140  0.78108657    -0.15500
C2636       C  0.49192871  0.39270833  0.76905624    -0.30700
H2637       H  0.51838641  0.37164459  0.77749765     0.13500
H2638       H  0.98839787  0.41288608  0.77335201     0.14100
C2639       C  0.53690427  0.16038350  0.76859888    -0.15500
C2640       C  0.50865312  0.13482768  0.76699602    -0.30700
H2641       H  0.54454705  0.17878721  0.75567642     0.13500
H2642       H  0.99962262  0.10977587  0.77456055     0.14100
C2643       C  0.60043369  0.48902462  0.75869392    -0.15500
C2644       C  0.59791173  0.49541820  0.78117034    -0.30700
H2645       H  0.58018853  0.95147150  0.75141710     0.13500
H2646       H  0.61049177  0.51905617  0.78738876     0.14100
C2647       C  0.64558196  0.14167757  0.76648366    -0.15500
C2648       C  0.61600198  0.12827736  0.77464745    -0.30700
H2649       H  0.66096257  0.16640977  0.76892631     0.13500
H2650       H  0.59955320  0.10479537  0.76924439     0.14100
C2651       C  0.68979658  0.02269172  0.56067289    -0.15500
C2652       C  0.71094091  0.04160650  0.54462910    -0.30700
H2653       H  0.68642694  0.99968380  0.56290049     0.13500
H2654       H  0.71638388  0.06545400  0.54340611     0.14100
C2655       C  0.73559873  0.18574552  0.57486040    -0.15500
C2656       C  0.73348044  0.18128250  0.55179288    -0.30700
H2657       H  0.74924300  0.20927229  0.58132232     0.13500
H2658       H  0.71802022  0.15862148  0.54461314     0.14100
C2659       C  0.52379302  0.34584332  0.90548559    -0.15500
C2660       C  0.55268136  0.36088215  0.89580728    -0.30700
H2661       H  0.50817058  0.35505251  0.90300358     0.13500
H2662       H  0.56937594  0.35363557  0.90037089     0.14100
C2663       C  0.58537084  0.24298338  0.90343551    -0.15500
C2664       C  0.57390932  0.21944023  0.88822849    -0.30700
H2665       H  0.60916318  0.26211534  0.90123301     0.13500
H2666       H  0.54931403  0.20185562  0.88911896     0.14100
C2667       C  0.83365640  0.35954348  0.89743736    -0.15500
C2668       C  0.81306016  0.32924837  0.89974623    -0.30700
H2669       H  0.85091571  0.37086752  0.91080639     0.13500
H2670       H  0.79423857  0.31818075  0.88745869     0.14100
C2671       C  0.67150646  0.21813633  0.88124772    -0.15500
C2672       C  0.66756179  0.20387653  0.90169683    -0.30700
H2673       H  0.69399939  0.23754542  0.87586597     0.13500
H2674       H  0.64466005  0.18432798  0.90628292     0.14100
C2675       C  0.65897202  0.47073642  0.90272148    -0.15500
C2676       C  0.63167817  0.47040624  0.90177489    -0.30700
H2677       H  0.66452791  0.45880953  0.88932390     0.13500
H2678       H  0.62479464  0.48063828  0.91562105     0.14100
C2679       C  0.81119671  0.44459188  0.89567849    -0.15500
C2680       C  0.78169528  0.43279221  0.90399209    -0.30700
H2681       H  0.82939991  0.46763836  0.90050971     0.13500
H2682       H  0.76349780  0.41017709  0.89832887     0.14100
C2683       C  0.93734908  0.29670312  0.11504708    -0.15500
C2684       C  0.92947811  0.27041617  0.10327161    -0.30700
H2685       H  0.95938156  0.31773167  0.11135915     0.13500
H2686       H  0.90855232  0.24906119  0.10859440     0.14100
C2687       C  0.83167864  0.27799202  0.11891104    -0.15500
C2688       C  0.83582490  0.29487939  0.09976293    -0.30700
H2689       H  0.81016382  0.25637185  0.12251448     0.13500
H2690       H  0.85778303  0.31648673  0.09701446     0.14100
C2691       C  0.80276350  0.46076297  0.45596695    -0.15500
C2692       C  0.82182823  0.47876879  0.43868092    -0.30700
H2693       H  0.79968751  0.43779275  0.45877232     0.13500
H2694       H  0.82321387  0.50097450  0.43537662     0.14100
C2695       C  0.77144832  0.31709177  0.42716976    -0.15500
C2696       C  0.77046208  0.32542063  0.44922202    -0.30700
H2697       H  0.75890835  0.29258991  0.42288713     0.13500
H2698       H  0.78384039  0.34940657  0.45461279     0.14100
C2699       C  0.84350541  0.36403562  0.22935351    -0.15500
C2700       C  0.85427015  0.34444325  0.23332828    -0.30700
H2701       H  0.84983338  0.37738212  0.21326431     0.13500
H2702       H  0.85023362  0.33313116  0.25017350     0.14100
C2703       C  0.54045072  0.33386646  0.43553764    -0.15500
C2704       C  0.51472788  0.30575166  0.43316974    -0.30700
H2705       H  0.55514695  0.33849140  0.45051651     0.13500
H2706       H  0.50152127  0.30053365  0.41730461     0.14100
C2707       C  0.69929337  0.44584471  0.43615002    -0.15500
C2708       C  0.70498185  0.44983729  0.41311203    -0.30700
H2709       H  0.67530025  0.43540109  0.44247467     0.13500
H2710       H  0.72901136  0.46174695  0.40666342     0.14100
C2711       C  0.97222565  0.39134542  0.24793273    -0.15500
C2712       C  0.96410251  0.37005329  0.23102229    -0.30700
H2713       H  0.45816589  0.39695315  0.25350252     0.13500
H2714       H  0.97787963  0.35872986  0.22863297     0.14100
C2715       C  0.97913450  0.13533765  0.09940331    -0.15500
C2716       C  0.97995255  0.16271888  0.10134562    -0.30700
H2717       H  0.98973990  0.13117053  0.08422121     0.13500
H2718       H  0.96714581  0.16587406  0.11556051     0.14100
C2719       C  0.85157147  0.03807323  0.09465190    -0.15500
C2720       C  0.87909866  0.03853008  0.09436207    -0.30700
H2721       H  0.84646595  0.04925904  0.10885689     0.13500
H2722       H  0.88536295  0.02949461  0.07936135     0.14100
C2723       C  0.89369140  0.00612956  0.21786796    -0.15500
C2724       C  0.89039822  0.01639273  0.23881510    -0.30700
H2725       H  0.88200156  0.98155711  0.21395576     0.13500
H2726       H  0.90204004  0.04129207  0.24165934     0.14100
C2727       C  0.66546340  0.14224194  0.10369347    -0.15500
C2728       C  0.68702084  0.17234047  0.10216695    -0.30700
H2729       H  0.64890329  0.13198362  0.08975317     0.13500
H2730       H  0.70486374  0.18222618  0.11530451     0.14100
C2731       C  0.69259596  0.06051578  0.09978338    -0.15500
C2732       C  0.72305978  0.07225392  0.09412477    -0.30700
H2733       H  0.67486138  0.03852988  0.09283373     0.13500
H2734       H  0.74076201  0.09358520  0.10191437     0.14100
C2735       C  0.63904470  0.99981421  0.22619727    -0.15500
C2736       C  0.62222845  0.01019221  0.21531452    -0.30700
H2737       H  0.66665133  0.50978237  0.22761013     0.13500
H2738       H  0.59706719  0.99836272  0.21822848     0.14100
C2739       C  0.52215810  0.19398349  0.43826450    -0.15500
C2740       C  0.49932989  0.20107438  0.43613278    -0.30700
H2741       H  0.53615601  0.20090044  0.45377475     0.13500
H2742       H  0.48659071  0.19555106  0.42002651     0.14100
C2743       C  0.68298069  0.23174212  0.42769360    -0.15500
C2744       C  0.67655492  0.22938807  0.45065655    -0.30700
H2745       H  0.70701953  0.24652210  0.42174149     0.13500
H2746       H  0.65342938  0.21314662  0.45757086     0.14100
C2747       C  0.98435828  0.09774842  0.24289361    -0.15500
C2748       C  0.99360911  0.09691644  0.22080750    -0.30700
H2749       H  0.95952120  0.08538359  0.24727803     0.13500
H2750       H  0.01802271  0.11069150  0.21552795     0.14100
C2751       C  0.65050399  0.11766299  0.23184012    -0.15500
C2752       C  0.63393993  0.13233253  0.23159144    -0.30700
H2753       H  0.66122065  0.11681026  0.24792967     0.13500
H2754       H  0.62043722  0.13054248  0.21639894     0.14100
O2755       O  0.58522401  0.70499779  0.36528621    -0.87400
C2756       C  0.60514260  0.63418814  0.36676786     0.88600
Mg2757     Mg  0.54077282  0.69760607  0.35446897     1.58100
O2758       O  0.63798415  0.68405856  0.31785801    -0.87200
O2759       O  0.63322157  0.73236028  0.35203099    -0.74500
C2760       C  0.50638499  0.61492499  0.25858616     0.93600
O2761       O  0.53817000  0.63293862  0.37820263    -0.74300
O2762       O  0.99447045  0.62027717  0.27786130    -0.81800
Mg2763     Mg  0.58469279  0.67272678  0.39094006     1.58000
C2764       C  0.62874375  0.64182769  0.25264089     0.93600
O2765       O  0.62945489  0.70713430  0.40992834    -0.80100
H2766       H  0.66713973  0.72583960  0.30405485    -0.05400
C2767       C  0.55718068  0.60394659  0.30690867     0.88500
O2768       O  0.55917364  0.71350691  0.31726169    -0.74600
O2769       O  0.61114565  0.66143431  0.36663510    -0.87400
O2770       O  0.64135403  0.64315105  0.27216669    -0.80200
C2771       C  0.68933970  0.65965441  0.33993289     0.93700
C2772       C  0.65867061  0.71776721  0.40689966     0.93500
Mg2773     Mg  0.57993092  0.66082133  0.27492413     1.58000
O2774       O  0.53562492  0.62527855  0.25666903    -0.80100
O2775       O  0.62673901  0.70103215  0.28669636    -0.74300
O2776       O  0.68297076  0.67650676  0.35276677    -0.80200
O2777       O  0.55700367  0.68579099  0.41566660    -0.81900
O2778       O  0.98229406  0.65983160  0.31350248    -0.80200
C2779       C  0.64515283  0.70435486  0.30288834     0.88000
O2780       O  0.55392701  0.67290090  0.29871755    -0.87300
O2781       O  0.57987610  0.62900739  0.30083672    -0.87400
O2782       O  0.53134051  0.60170655  0.31297110    -0.74500
Mg2783     Mg  0.65371195  0.70016049  0.35211998     1.58000
O2784       O  0.67241857  0.64463056  0.32287267    -0.81900
H2785       H  0.60495108  0.75032688  0.35820799    -0.05600
O2786       O  0.52723700  0.65007358  0.34694618    -0.87100
H2787       H  0.49828064  0.60797565  0.36031354    -0.05400
H2788       H  0.56978203  0.71411399  0.28310528    -0.05600
C2789       C  0.52006026  0.62959442  0.36176650     0.87900
C2790       C  0.60767717  0.73008135  0.35895109     0.88500
C2791       C  0.56093992  0.70047021  0.29887751     0.88600
H2792       H  0.55976165  0.58362181  0.30790721    -0.05600
O2793       O  0.60739309  0.62121918  0.34852173    -0.74600
Mg2794     Mg  0.51104920  0.63424405  0.31273028     1.58000
H2795       H  0.59690862  0.62078175  0.38268965    -0.05600
C2796       C  0.53348229  0.68937635  0.41271604     0.93600
O2797       O  0.99312394  0.69092339  0.34387117    -0.81800
C2798       C  0.97623958  0.67656646  0.32670662     0.93600
O2799       O  0.67050756  0.71628736  0.38764568    -0.81800
Mg2800     Mg  0.62471559  0.63630605  0.31101253     1.58200
O2801       O  0.52231502  0.68833419  0.39264587    -0.80200
O2802       O  0.60611954  0.64687221  0.25059797    -0.81800
C2803       C  0.65439198  0.59555047  0.21489113    -0.09900
C2804       C  0.64524233  0.56557971  0.22307922    -0.03800
C2805       C  0.64385307  0.54258291  0.20842041    -0.09900
C2806       C  0.65512714  0.55054198  0.18544796     0.11000
C2807       C  0.66162160  0.57970392  0.17627647    -0.01700
C2808       C  0.66024509  0.60205244  0.19076920     0.10800
C2809       C  0.66474744  0.62982656  0.18058085    -0.11700
C2810       C  0.66735518  0.63404616  0.15652878    -0.11700
C2811       C  0.66966426  0.61254117  0.14214823     0.10800
C2812       C  0.66889206  0.58620906  0.15239008    -0.01700
C2813       C  0.65982183  0.53017042  0.17138167    -0.11900
C2814       C  0.67092420  0.53846421  0.14863184    -0.11900
C2815       C  0.67478899  0.56602352  0.13867981     0.11000
C2816       C  0.68424174  0.57408738  0.11534075    -0.09900
C2817       C  0.68152072  0.59792173  0.10492990    -0.03800
C2818       C  0.67281978  0.61624460  0.11777934    -0.09900
H2819       H  0.66538786  0.64820691  0.19086885     0.08300
H2820       H  0.66876877  0.65485454  0.14938634     0.08300
H2821       H  0.65586094  0.50814091  0.17812935     0.08500
H2822       H  0.67515178  0.52250622  0.13860961     0.08500
H2823       H  0.63790284  0.55965259  0.24108332     0.04900
H2824       H  0.68601518  0.60211251  0.08643052     0.04900
C2825       C  0.97038385  0.57710062  0.20237909    -0.09900
C2826       C  0.94738919  0.54903109  0.21197261    -0.03800
C2827       C  0.91859528  0.53120021  0.20158476    -0.09900
C2828       C  0.91499529  0.53755619  0.17830480     0.11000
C2829       C  0.93952307  0.56441909  0.16707540    -0.01700
C2830       C  0.96705493  0.58473799  0.17936360     0.10800
C2831       C  0.99004153  0.61212055  0.16844253    -0.11700
C2832       C  0.98652854  0.61925782  0.14570179    -0.11700
C2833       C  0.95981806  0.59936280  0.13311037     0.10800
C2834       C  0.93599912  0.57163805  0.14387365    -0.01700
C2835       C  0.88779039  0.51819524  0.16605065    -0.11900
C2836       C  0.88494976  0.52454376  0.14289033    -0.11900
C2837       C  0.90870948  0.55111564  0.13148894     0.11000
C2838       C  0.90628983  0.55770421  0.10795287    -0.09900
C2839       C  0.93037529  0.58471166  0.09753550    -0.03800
C2840       C  0.95647493  0.60606545  0.10985795    -0.09900
H2841       H  0.01110079  0.62815510  0.17732393     0.08300
H2842       H  0.00512870  0.64043232  0.13796862     0.08300
H2843       H  0.86881392  0.49759741  0.17415641     0.08500
H2844       H  0.86387084  0.50853595  0.13399175     0.08500
H2845       H  0.95064001  0.54251770  0.22923692     0.04900
H2846       H  0.92842251  0.58957882  0.07948752     0.04900
O2847       O  0.58030536  0.95036107  0.29735366    -0.87400
C2848       C  0.55260236  0.85881607  0.30073783     0.88600
Mg2849     Mg  0.62839349  0.98531130  0.30177779     1.58100
O2850       O  0.53455001  0.88965208  0.34994408    -0.87200
O2851       O  0.53482426  0.93720079  0.31281051    -0.74500
C2852       C  0.67698397  0.94657369  0.39564281     0.93600
O2853       O  0.61849869  0.91799399  0.28091561    -0.74300
O2854       O  0.68706612  0.95880739  0.37571164    -0.81800
Mg2855     Mg  0.57160971  0.91533225  0.27229137     1.58000
C2856       C  0.54929844  0.86155658  0.41462269     0.93600
O2857       O  0.52388240  0.90783768  0.25872897    -0.80100
H2858       H  0.51232319  0.90943957  0.36516831    -0.05400
C2859       C  0.61223609  0.88152617  0.35607211     0.88500
O2860       O  0.61867722  0.99164466  0.33987060    -0.74600
O2861       O  0.54736239  0.88065297  0.29951933    -0.87400
O2862       O  0.53290459  0.85450775  0.39649846    -0.80200
C2863       C  0.97265889  0.81109711  0.34137349     0.93700
C2864       C  0.49499220  0.89141406  0.26462157     0.93500
Mg2865     Mg  0.60104705  0.92379276  0.38747613     1.58000
O2866       O  0.64792844  0.93079174  0.40083704    -0.80100
O2867       O  0.55422810  0.92112562  0.37915911    -0.74300
O2868       O  0.97739992  0.83209174  0.32652438    -0.80200
O2869       O  0.59731800  0.95426503  0.24477646    -0.81900
O2870       O  0.69422498  0.50479926  0.33791615    -0.80200
C2871       C  0.53262911  0.90656643  0.36473361     0.88000
O2872       O  0.62521846  0.95806263  0.36029798    -0.87300
O2873       O  0.59266469  0.88855129  0.36247846    -0.87400
O2874       O  0.63823364  0.90158244  0.34721237    -0.74500
Mg2875     Mg  0.51063435  0.88455432  0.31831970     1.58000
O2876       O  0.99341282  0.81439503  0.35561863    -0.81900
H2877       H  0.56612736  0.98116903  0.30250334    -0.05600
O2878       O  0.63848932  0.94922160  0.31030388    -0.87100
H2879       H  0.66022466  0.92901718  0.29494954    -0.05400
H2880       H  0.61551144  0.98872826  0.37497693    -0.05600
C2881       C  0.64011388  0.93219866  0.29543993     0.87900
C2882       C  0.56071944  0.95730910  0.30384662     0.88500
C2883       C  0.62005320  0.97996212  0.35914184     0.88600
H2884       H  0.60670401  0.85762376  0.35737224    -0.05600
O2885       O  0.55395566  0.84718914  0.32003946    -0.74600
Mg2886     Mg  0.66234249  0.95423257  0.34203013     1.58000
H2887       H  0.55713318  0.84997847  0.28491770    -0.05600
C2888       C  0.62507545  0.97740498  0.24559817     0.93600
O2889       O  0.67625050  0.52342059  0.31082775    -0.81800
C2890       C  0.69737584  0.52665156  0.32459853     0.93600
O2891       O  0.98805150  0.88018762  0.28519196    -0.81800
Mg2892     Mg  0.54473592  0.85351258  0.35829940     1.58200
O2893       O  0.64119882  0.98381034  0.26377786    -0.80200
O2894       O  0.57621627  0.88577105  0.41534110    -0.81800
O2895       O  0.86238522  0.92058766  0.30049782    -0.87400
C2896       C  0.79962618  0.94979359  0.31146355     0.88600
Mg2897     Mg  0.85129018  0.87344602  0.30736097     1.58100
O2898       O  0.86259651  0.97656117  0.35060753    -0.87200
O2899       O  0.89769962  0.96854312  0.30694006    -0.74500
C2900       C  0.79048889  0.84653714  0.41368983     0.93600
O2901       O  0.78859530  0.88012236  0.29603821    -0.74300
O2902       O  0.79027778  0.83035980  0.39646954    -0.81800
Mg2903     Mg  0.82928928  0.92470600  0.27931772     1.58000
C2904       C  0.83571126  0.96999300  0.42081347     0.93600
O2905       O  0.86464005  0.96754785  0.25836860    -0.80100
H2906       H  0.90834973  0.99959326  0.35716672    -0.05400
C2907       C  0.78117748  0.90113436  0.37218113     0.88500
O2908       O  0.87816844  0.88778728  0.34147343    -0.74600
O2909       O  0.82552612  0.95319962  0.30626304    -0.87400
O2910       O  0.84180196  0.98528728  0.40190891    -0.80200
C2911       C  0.83793382  0.53251753  0.34191490     0.93700
C2912       C  0.87632099  0.99679666  0.25954268     0.93500
Mg2913     Mg  0.84213445  0.91670974  0.39339576     1.58000
O2914       O  0.80466053  0.87584782  0.41306917    -0.80100
O2915       O  0.88326531  0.96057854  0.37678135    -0.74300
O2916       O  0.84877823  0.52534699  0.32434059    -0.80200
O2917       O  0.83843456  0.89739021  0.25147714    -0.81900
O2918       O  0.81700232  0.81289567  0.34906172    -0.80200
C2919       C  0.88557510  0.97996730  0.36135853     0.88000
O2920       O  0.84470122  0.88718877  0.36705400    -0.87300
O2921       O  0.80895142  0.92142745  0.37290364    -0.87400
O2922       O  0.77316565  0.87349154  0.36677251    -0.74500
Mg2923     Mg  0.86996950  0.99323242  0.31558776     1.58000
O2924       O  0.82655182  0.51483124  0.35956489    -0.81900
H2925       H  0.90812619  0.93537101  0.29753038    -0.05600
O2926       O  0.80817247  0.86485656  0.32351184    -0.87100
H2927       H  0.76272612  0.84152939  0.31596262    -0.05400
H2928       H  0.88754467  0.89632113  0.37566330    -0.05600
C2929       C  0.78561842  0.86118884  0.31208663     0.87900
C2930       C  0.89006470  0.94106520  0.30131269     0.88500
C2931       C  0.87059218  0.89032950  0.36214536     0.88600
H2932       H  0.76333593  0.90715044  0.37584379    -0.05600
O2933       O  0.79268378  0.95314574  0.33213669    -0.74600
Mg2934     Mg  0.79957091  0.84741405  0.35844343     1.58000
H2935       H  0.78223544  0.94320416  0.29819177    -0.05600
C2936       C  0.83646205  0.87108937  0.25399411     0.93600
O2937       O  0.84042765  0.82441769  0.31415243    -0.81800
C2938       C  0.82831189  0.80613205  0.33138621     0.93600
O2939       O  0.87584224  0.51207978  0.27785730    -0.81800
Mg2940     Mg  0.81923924  0.96798178  0.36654303     1.58200
O2941       O  0.82653643  0.85614588  0.27294444    -0.80200
O2942       O  0.83556805  0.94447447  0.42175037    -0.81800
C2943       C  0.93981527  0.86419152  0.21743528    -0.09900
C2944       C  0.91734040  0.87178608  0.22503065    -0.03800
C2945       C  0.89339951  0.86871456  0.21080207    -0.09900
C2946       C  0.89156036  0.85783501  0.18805957     0.11000
C2947       C  0.91353428  0.84919183  0.18005088    -0.01700
C2948       C  0.93764273  0.85209720  0.19477404     0.10800
C2949       C  0.95896770  0.84324932  0.18622114    -0.11700
C2950       C  0.95638963  0.83133233  0.16386220    -0.11700
C2951       C  0.93262151  0.82811537  0.14911316     0.10800
C2952       C  0.91113149  0.83739124  0.15730262    -0.01700
C2953       C  0.86802074  0.85500397  0.17326673    -0.11900
C2954       C  0.86560042  0.84337763  0.15108626    -0.11900
C2955       C  0.88672053  0.83429138  0.14289619     0.11000
C2956       C  0.88358002  0.82137668  0.12081667    -0.09900
C2957       C  0.90495384  0.81299240  0.11284196    -0.03800
C2958       C  0.92900781  0.81537481  0.12654384    -0.09900
H2959       H  0.97789411  0.84543430  0.19671945     0.08300
H2960       H  0.97310440  0.82453691  0.15820596     0.08300
H2961       H  0.85106038  0.86152974  0.17881219     0.08500
H2962       H  0.84683981  0.84137350  0.14044038     0.08500
H2963       H  0.91812040  0.87989506  0.24256580     0.04900
H2964       H  0.90255054  0.80414899  0.09536204     0.04900
O2965       O  0.76302742  0.50450423  0.95485635    -0.87400
C2966       C  0.68174703  0.94906685  0.99589095     0.88600
Mg2967     Mg  0.80723558  0.50670554  0.95996959     1.58100
O2968       O  0.72039704  0.52770941  0.00677004    -0.87200
O2969       O  0.74209833  0.53428323  0.95396373    -0.74500
C2970       C  0.83215445  0.52791860  0.07274318     0.93600
O2971       O  0.73979844  0.93901866  0.97876211    -0.74300
O2972       O  0.83773160  0.51553380  0.05537538    -0.81800
Mg2973     Mg  0.71859319  0.95910362  0.95341383     1.58000
C2974       C  0.73418907  0.55567247  0.07498014     0.93600
O2975       O  0.69202279  0.97144659  0.92602691    -0.80100
H2976       H  0.73480900  0.57135308  0.99668643    -0.05400
C2977       C  0.74284646  0.97791054  0.05118013     0.88500
O2978       O  0.82545530  0.55115482  0.98155498    -0.74600
O2979       O  0.69722753  0.97010865  0.98171900    -0.87400
O2980       O  0.71303036  0.53697254  0.06165787    -0.80200
C2981       C  0.63628978  0.99345319  0.01710783     0.93700
C2982       C  0.67092186  0.97921437  0.92652003     0.93500
Mg2983     Mg  0.78502153  0.54739824  0.04451466     1.58000
O2984       O  0.81065557  0.53507695  0.07251061    -0.80100
O2985       O  0.76410855  0.56695021  0.01864369    -0.74300
O2986       O  0.64531291  0.99029069  0.99696480    -0.80200
O2987       O  0.74072044  0.94604180  0.92384003    -0.81900
O2988       O  0.85969487  0.51759679  0.00268117    -0.80200
C2989       C  0.73920513  0.55586053  0.00708339     0.88000
O2990       O  0.80690904  0.53608548  0.01674568    -0.87300
O2991       O  0.74327849  0.00151985  0.04396289    -0.87400
O2992       O  0.76365227  0.97135079  0.04502293    -0.74500
Mg2993     Mg  0.69587086  0.50960161  0.97512432     1.58000
O2994       O  0.65299771  0.99855936  0.03481620    -0.81900
H2995       H  0.78254006  0.54454806  0.93702546    -0.05600
O2996       O  0.78338604  0.97777148  0.99130891    -0.87100
H2997       H  0.76861324  0.93382801  0.00074988    -0.05400
H2998       H  0.83509314  0.58078922  0.00834781    -0.05600
C2999       C  0.76444828  0.94966949  0.99062465     0.87900
C3000       C  0.76335216  0.52822428  0.94799112     0.88500
C3001       C  0.82310346  0.55697101  0.00266507     0.88600
H3002       H  0.72388235  0.96207338  0.06254770    -0.05600
O3003       O  0.68044492  0.95458723  0.01722153    -0.74600
Mg3004     Mg  0.80907313  0.99611014  0.02309079     1.58000
H3005       H  0.66967281  0.92529840  0.99008974    -0.05600
C3006       C  0.76844053  0.95085353  0.92144650     0.93600
O3007       O  0.85222302  0.50571658  0.96528320    -0.81800
C3008       C  0.86856076  0.51197166  0.98331775     0.93600
O3009       O  0.66658774  0.99210375  0.94409320    -0.81800
Mg3010     Mg  0.69884908  0.99878756  0.03896038     1.58200
O3011       O  0.79028643  0.96857232  0.93482252    -0.80200
O3012       O  0.76220404  0.56107985  0.07342162    -0.81800
O3013       O  0.74811998  0.73545180  0.96021406    -0.87400
C3014       C  0.76526040  0.81706723  0.98935025     0.88600
Mg3015     Mg  0.70550378  0.69255405  0.96648069     1.58100
O3016       O  0.81048343  0.78519552  0.00980883    -0.87200
O3017       O  0.79921139  0.75810026  0.95918889    -0.74500
C3018       C  0.69612411  0.68443349  0.08014271     0.93600
O3019       O  0.69786531  0.75644324  0.97442462    -0.74300
O3020       O  0.67806084  0.67345204  0.06288338    -0.81800
Mg3021     Mg  0.74132369  0.77324598  0.95046533     1.58000
C3022       C  0.81736725  0.77731686  0.07978390     0.93600
O3023       O  0.78174203  0.79090708  0.92413488    -0.80100
H3024       H  0.83894712  0.76832129  0.00293654    -0.05400
C3025       C  0.73140936  0.76517115  0.04782148     0.88500
O3026       O  0.72933034  0.67594365  0.99194998    -0.74600
O3027       O  0.77114138  0.79914663  0.97857967    -0.87400
O3028       O  0.82206719  0.79806162  0.06489569    -0.80200
C3029       C  0.85411523  0.86682299  0.01125992     0.93700
C3030       C  0.80591824  0.81763205  0.92346711     0.93500
Mg3031     Mg  0.76124692  0.72521119  0.05033269     1.58000
O3032       O  0.72304692  0.70829844  0.07825095    -0.80100
O3033       O  0.80309026  0.74160130  0.02515561    -0.74300
O3034       O  0.84158311  0.85612542  0.99172503    -0.80200
O3035       O  0.70965342  0.74669793  0.92060203    -0.81900
O3036       O  0.65811779  0.64523925  0.01127696    -0.80200
C3037       C  0.81864403  0.76557644  0.01243592     0.88000
O3038       O  0.72972912  0.69959027  0.02370794    -0.87300
O3039       O  0.75515693  0.76419579  0.04222689    -0.87400
O3040       O  0.70425219  0.74306375  0.04331229    -0.74500
Mg3041     Mg  0.81741498  0.80623187  0.97623179     1.58000
O3042       O  0.84280190  0.85183225  0.03004954    -0.81900
H3043       H  0.77067025  0.71505109  0.94642583    -0.05600
O3044       O  0.69278557  0.71546264  0.99264040    -0.87100
H3045       H  0.66242422  0.73061093  0.99728157    -0.05400
H3046       H  0.74568916  0.66971918  0.02236468    -0.05600
C3047       C  0.68328694  0.73370782  0.98845317     0.87900
C3048       C  0.77234335  0.73519695  0.95488015     0.88500
C3049       C  0.73510203  0.68108656  0.01328909     0.88600
H3050       H  0.73380882  0.78549271  0.05644947    -0.05600
O3051       O  0.77237453  0.82295711  0.01048277    -0.74600
Mg3052     Mg  0.68451814  0.69494147  0.02660975     1.58000
H3053       H  0.75362896  0.82769966  0.98071064    -0.05600
C3054       C  0.68520017  0.72017080  0.92195627     0.93600
O3055       O  0.66001541  0.64891019  0.97267874    -0.81800
C3056       C  0.64714133  0.63450131  0.99135545     0.93600
O3057       O  0.82288930  0.82896720  0.94112649    -0.81800
Mg3058     Mg  0.79723818  0.80742195  0.03626250     1.58200
O3059       O  0.67970644  0.70192994  0.93891874    -0.80200
O3060       O  0.79481089  0.74982729  0.07858614    -0.81800
O3061       O  0.50408019  0.76539787  0.04560160    -0.87400
C3062       C  0.95805802  0.68366128  0.01373277     0.88600
Mg3063     Mg  0.49663225  0.80409722  0.03824020     1.58100
O3064       O  0.53543645  0.72626960  0.99361743    -0.87200
O3065       O  0.54118464  0.75327830  0.04487254    -0.74500
C3066       C  0.51021442  0.81889252  0.92473064     0.93600
O3067       O  0.93618617  0.73529592  0.02848385    -0.74300
O3068       O  0.49528900  0.82235349  0.94145722    -0.81800
Mg3069     Mg  0.96506245  0.72411974  0.05351070     1.58000
C3070       C  0.55536601  0.73859289  0.92146483     0.93600
O3071       O  0.98530131  0.70638079  0.08205415    -0.80100
H3072       H  0.58089714  0.74878915  0.00093368    -0.05400
C3073       C  0.97245995  0.73140528  0.95431165     0.88500
O3074       O  0.53935960  0.82623450  0.01346146    -0.74600
O3075       O  0.97868868  0.70377641  0.02572889    -0.87400
O3076       O  0.54167166  0.71532454  0.93541198    -0.80200
C3077       C  0.01007731  0.64635637  0.99751976     0.93700
C3078       C  0.99350092  0.68580436  0.08155589     0.93500
Mg3079     Mg  0.53916943  0.78273332  0.95362701     1.58000
O3080       O  0.51816324  0.79822178  0.92522554    -0.80100
O3081       O  0.56789432  0.77187013  0.97881790    -0.74300
O3082       O  0.00656219  0.65812636  0.01598460    -0.80200
O3083       O  0.95101312  0.74627354  0.08229271    -0.81900
O3084       O  0.49281512  0.84531781  0.99051563    -0.83800
C3085       C  0.56217156  0.74857954  0.99133601     0.88000
O3086       O  0.52375304  0.80153425  0.98089452    -0.87300
O3087       O  0.99924310  0.73771539  0.95933736    -0.87400
O3088       O  0.96173634  0.74915095  0.95961557    -0.74500
Mg3089     Mg  0.52202139  0.70540962  0.02765641     1.58000
O3090       O  0.01458258  0.65962493  0.97776503    -0.81900
H3091       H  0.54600809  0.79262498  0.05927221    -0.05600
O3092       O  0.96923962  0.77824313  0.01061262    -0.87100
H3093       H  0.92329359  0.75716166  0.00508825    -0.05400
H3094       H  0.56721786  0.83689702  0.98473133    -0.05600
C3095       C  0.94218672  0.75725395  0.01440020     0.87900
C3096       C  0.53079982  0.77126250  0.05045332     0.88500
C3097       C  0.54434042  0.82224326  0.99248136     0.88600
H3098       H  0.95746601  0.70979594  0.94575936    -0.05600
O3099       O  0.96354797  0.67922013  0.99291491    -0.74600
Mg3100     Mg  0.98119562  0.79743956  0.97578430     1.58000
H3101       H  0.93477502  0.66969020  0.02103222    -0.05600
C3102       C  0.95254370  0.77253106  0.08373372     0.93600
O3103       O  0.48842005  0.84480492  0.02909269    -0.81800
C3104       C  0.49118709  0.85766119  0.00931891     0.93600
O3105       O  0.00748582  0.68273333  0.06403096    -0.81800
Mg3106     Mg  0.00629724  0.69957068  0.96766526     1.58200
O3107       O  0.96575364  0.79350450  0.06802820    -0.80200
O3108       O  0.55573529  0.76389648  0.92505492    -0.81800
O3109       O  0.71036581  0.58218572  0.63249910    -0.87400
C3110       C  0.64536758  0.60946194  0.62902541     0.88600
Mg3111     Mg  0.69722600  0.53556113  0.64182157     1.58100
O3112       O  0.70008671  0.64293341  0.67353482    -0.87200
O3113       O  0.74261689  0.63181649  0.63791990    -0.74500
C3114       C  0.61733603  0.51075202  0.73937166     0.93600
O3115       O  0.63817502  0.54132475  0.61659560    -0.74300
O3116       O  0.60940041  0.98684639  0.71793034    -0.81800
Mg3117     Mg  0.68342269  0.58580525  0.60541452     1.58000
C3118       C  0.66119871  0.64108233  0.73945772     0.93600
O3119       O  0.72716217  0.62893318  0.59440010    -0.80100
H3120       H  0.74365080  0.66432614  0.68552740    -0.05400
C3121       C  0.61404586  0.56660354  0.69074987     0.88500
O3122       O  0.71447324  0.55044128  0.67893040    -0.74600
O3123       O  0.67230505  0.61385519  0.62852150    -0.87400
O3124       O  0.66940509  0.65318755  0.71934979    -0.80200
C3125       C  0.67638431  0.69620209  0.65490130     0.93700
C3126       C  0.72220030  0.64865374  0.58466034     0.93500
Mg3127     Mg  0.66940054  0.58324350  0.72082153     1.58000
O3128       O  0.63040831  0.54019145  0.74152104    -0.80100
O3129       O  0.71288281  0.62673562  0.70476213    -0.74300
O3130       O  0.69125511  0.68953670  0.63973294    -0.80200
O3131       O  0.69436607  0.55646456  0.57995598    -0.81900
O3132       O  0.64277237  0.97248591  0.67668567    -0.80200
C3133       C  0.71980725  0.64559518  0.68772777     0.88000
O3134       O  0.67679619  0.55261499  0.69767773    -0.87300
O3135       O  0.64122977  0.58651299  0.69460230    -0.87400
O3136       O  0.60709745  0.53936769  0.68520357    -0.74500
Mg3137     Mg  0.71337968  0.65729148  0.63747891     1.58000
O3138       O  0.66269410  0.67895657  0.67231754    -0.81900
H3139       H  0.75608228  0.59919258  0.63756557    -0.05600
O3140       O  0.65121763  0.52900973  0.64934847    -0.87100
H3141       H  0.60885714  0.50309880  0.63582127    -0.05400
H3142       H  0.71619929  0.56086864  0.71306070    -0.05600
C3143       C  0.63181198  0.52341539  0.63409412     0.87900
C3144       C  0.73702456  0.60390338  0.63616329     0.88500
C3145       C  0.70277900  0.55464438  0.69737393     0.88600
H3146       H  0.59597412  0.57289199  0.69118697    -0.05600
O3147       O  0.63352659  0.61368262  0.64738594    -0.74600
Mg3148     Mg  0.63425205  0.51340112  0.68395657     1.58000
H3149       H  0.63137397  0.60121945  0.61368283    -0.05600
C3150       C  0.68603171  0.52822496  0.58415354     0.93600
O3151       O  0.67228745  0.98374292  0.64462122    -0.81800
C3152       C  0.65685232  0.96545196  0.66130707     0.93600
O3153       O  0.72175964  0.66945711  0.59717498    -0.81800
Mg3154     Mg  0.65311340  0.63212640  0.68348495     1.58200
O3155       O  0.68344040  0.51812795  0.60478672    -0.80200
O3156       O  0.65809479  0.61455815  0.74412422    -0.81800
C3157       C  0.63784777  0.71459407  0.86917921    -0.09900
C3158       C  0.61583151  0.72011717  0.88014240    -0.03800
C3159       C  0.58740668  0.71270498  0.87016095    -0.09900
C3160       C  0.58173322  0.70118716  0.84713917     0.11000
C3161       C  0.60392337  0.69512680  0.83570194    -0.01700
C3162       C  0.63175446  0.70121327  0.84703611     0.10800
C3163       C  0.65210393  0.69275175  0.83634319    -0.11700
C3164       C  0.64524052  0.67830613  0.81488797    -0.11700
C3165       C  0.61853906  0.67312438  0.80289741     0.10800
C3166       C  0.59804590  0.68234686  0.81308734    -0.01700
C3167       C  0.55514668  0.69619617  0.83501611    -0.11900
C3168       C  0.55059901  0.68584997  0.81204981    -0.11900
C3169       C  0.57158044  0.67849590  0.80084203     0.11000
C3170       C  0.56695432  0.66716944  0.77781415    -0.09900
C3171       C  0.58660883  0.65685112  0.76859752    -0.03800
C3172       C  0.61163622  0.65873692  0.78103157    -0.09900
H3173       H  0.67320485  0.69664436  0.84473448     0.08300
H3174       H  0.66138034  0.67173544  0.80754317     0.08300
H3175       H  0.53811673  0.70107533  0.84302724     0.08500
H3176       H  0.53011203  0.68296672  0.80326780     0.08500
H3177       H  0.62053654  0.72902651  0.89762409     0.04900
H3178       H  0.58210658  0.64679595  0.75145331     0.04900
C3179       C  0.61574851  0.93015994  0.87958828    -0.09900
C3180       C  0.59687598  0.90132707  0.89045153    -0.03800
C3181       C  0.56766918  0.87971211  0.88188386    -0.09900
C3182       C  0.55736872  0.88635961  0.86110121     0.11000
C3183       C  0.57612200  0.91552286  0.84977098    -0.01700
C3184       C  0.60541066  0.93759724  0.85902543     0.10800
C3185       C  0.62373189  0.96595277  0.84714220    -0.11700
C3186       C  0.61358799  0.97253845  0.82648263    -0.11700
C3187       C  0.58462847  0.95111121  0.81710208     0.10800
C3188       C  0.56584115  0.92223074  0.82881836    -0.01700
C3189       C  0.52945486  0.86415314  0.85089960    -0.11900
C3190       C  0.51981998  0.87043132  0.83010741    -0.11900
C3191       C  0.53754070  0.89926373  0.81889334     0.11000
C3192       C  0.52748261  0.90577308  0.79802543    -0.09900
C3193       C  0.54421250  0.93544187  0.78838520    -0.03800
C3194       C  0.57394964  0.95702692  0.79603742    -0.09900
H3195       H  0.64618817  0.98317118  0.85368865     0.08300
H3196       H  0.62860670  0.99463350  0.81797688     0.08300
H3197       H  0.51497466  0.84145067  0.85869415     0.08500
H3198       H  0.49801714  0.85262763  0.82304947     0.08500
H3199       H  0.60495121  0.89575830  0.90616469     0.04900
H3200       H  0.53594373  0.94050113  0.77258592     0.04900
O3201       O  0.90597534  0.57163543  0.71135015    -0.87400
C3202       C  0.98288190  0.59387235  0.67006045     0.88600
Mg3203     Mg  0.86144675  0.53046706  0.70646058     1.58100
O3204       O  0.94714318  0.63876439  0.65954085    -0.87200
O3205       O  0.92698945  0.62202073  0.71322529    -0.74500
C3206       C  0.83038288  0.52797495  0.59556238     0.93600
O3207       O  0.92536007  0.52506870  0.68669067    -0.74300
O3208       O  0.82913148  0.50957018  0.61143750    -0.81800
Mg3209     Mg  0.94611788  0.56471660  0.71281748     1.58000
C3210       C  0.92948345  0.65265827  0.59040799     0.93600
O3211       O  0.97124144  0.60150100  0.74101096    -0.80100
H3212       H  0.93303021  0.66786728  0.67066369    -0.05400
C3213       C  0.92122679  0.56553181  0.61531326     0.88500
O3214       O  0.84218671  0.55669381  0.68611784    -0.74600
O3215       O  0.96794617  0.59892807  0.68509689    -0.87400
O3216       O  0.95248085  0.65597502  0.60232974    -0.80200
C3217       C  0.52963394  0.68572742  0.64914204     0.93700
C3218       C  0.99353484  0.62954737  0.74173494     0.93500
Mg3219     Mg  0.87975036  0.59450432  0.62329607     1.58000
O3220       O  0.84959257  0.55719204  0.59613386    -0.80100
O3221       O  0.90274411  0.63446814  0.64921313    -0.74300
O3222       O  0.51968329  0.67399835  0.66930608    -0.80200
O3223       O  0.92331043  0.52745489  0.74175834    -0.81900
O3224       O  0.80943541  0.98808562  0.65641448    -0.80200
C3225       C  0.92822114  0.64812314  0.66008572     0.88000
O3226       O  0.85935106  0.56021126  0.65056616    -0.87300
O3227       O  0.92049231  0.58814669  0.62325516    -0.87400
O3228       O  0.90140014  0.53811832  0.62161935    -0.74500
Mg3229     Mg  0.97242354  0.64376097  0.69117407     1.58000
O3230       O  0.51364713  0.67459903  0.63099678    -0.81900
H3231       H  0.88700850  0.59168867  0.73045989    -0.05600
O3232       O  0.88180205  0.52187370  0.67550055    -0.87100
H3233       H  0.89543402  0.49223912  0.66473162    -0.05400
H3234       H  0.83049181  0.57579418  0.65977705    -0.05600
C3235       C  0.90026706  0.51194891  0.67536119     0.87900
C3236       C  0.90586166  0.59474833  0.71898301     0.88500
C3237       C  0.84322324  0.56439937  0.66504289     0.88600
H3238       H  0.93984451  0.56924168  0.60331785    -0.05600
O3239       O  0.98370781  0.60192003  0.64903178    -0.74600
Mg3240     Mg  0.85679344  0.51596105  0.64410953     1.58000
H3241       H  0.99495171  0.58160469  0.67482054    -0.05600
C3242       C  0.89514858  0.50542561  0.74413164     0.93600
O3243       O  0.81171904  0.98476340  0.69489310    -0.81800
C3244       C  0.79794052  0.97444674  0.67581171     0.93600
O3245       O  0.99982571  0.64846554  0.72474468    -0.81800
Mg3246     Mg  0.96559480  0.62906246  0.62805710     1.58200
O3247       O  0.87361504  0.50323235  0.73121458    -0.80200
O3248       O  0.90155633  0.63093831  0.59440511    -0.81800
O3249       O  0.90647116  0.85555874  0.69783380    -0.87400
C3250       C  0.92727916  0.78542490  0.70586341     0.88600
Mg3251     Mg  0.86472485  0.85231702  0.68410011     1.58100
O3252       O  0.96571945  0.83980985  0.66034091    -0.87200
O3253       O  0.95706159  0.88482087  0.69482596    -0.74500
C3254       C  0.84035122  0.76926183  0.59048483     0.93600
O3255       O  0.85818592  0.78406595  0.70756900    -0.74300
O3256       O  0.82605389  0.77639861  0.60552199    -0.81800
Mg3257     Mg  0.90169974  0.82306417  0.72434683     1.58000
C3258       C  0.96759267  0.80483852  0.59628720     0.93600
O3259       O  0.94183396  0.85931473  0.74536572    -0.80100
H3260       H  0.99266056  0.88313556  0.64827661    -0.05400
C3261       C  0.88441382  0.75996312  0.64374257     0.88500
O3262       O  0.88826328  0.86970530  0.64867524    -0.74600
O3263       O  0.93295850  0.81253450  0.70519929    -0.87400
O3264       O  0.97679732  0.80717164  0.61694051    -0.80200
C3265       C  0.51648888  0.81366813  0.68102563     0.93700
C3266       C  0.97045353  0.86829324  0.74867137     0.93500
Mg3267     Mg  0.91130824  0.81567348  0.61223762     1.58000
O3268       O  0.86894408  0.77662226  0.59249043    -0.80100
O3269       O  0.95536188  0.85647262  0.62820977    -0.74300
O3270       O  0.50976643  0.82880699  0.69568058    -0.80200
O3271       O  0.87068916  0.83526436  0.74500594    -0.81900
O3272       O  0.81081768  0.81829353  0.63871562    -0.80200
C3273       C  0.97228368  0.86060331  0.64577309     0.88000
O3274       O  0.88234152  0.82812859  0.63159677    -0.87300
O3275       O  0.90827188  0.78523598  0.63987448    -0.87400
O3276       O  0.85754884  0.75755495  0.64547588    -0.74500
Mg3277     Mg  0.97783357  0.85253076  0.69580936     1.58000
O3278       O  0.49883105  0.79960956  0.66413873    -0.81900
H3279       H  0.92726257  0.90179519  0.69580227    -0.05600
O3280       O  0.84857752  0.80411906  0.67696387    -0.87100
H3281       H  0.82000753  0.76051547  0.68773317    -0.05400
H3282       H  0.90143984  0.86925127  0.61531077    -0.05600
C3283       C  0.84107192  0.78231009  0.69076639     0.87900
C3284       C  0.92992604  0.88150068  0.69629086     0.88500
C3285       C  0.89062629  0.85598144  0.63098531     0.88600
H3286       H  0.88646336  0.73945469  0.64594539    -0.05600
O3287       O  0.93123549  0.77280522  0.68810143    -0.74600
Mg3288     Mg  0.83745134  0.79074407  0.64217625     1.58000
H3289       H  0.91778643  0.77191631  0.72162830    -0.05600
C3290       C  0.84857668  0.84026261  0.74016355     0.93600
O3291       O  0.82160693  0.85040963  0.66841939    -0.81800
C3292       C  0.80591035  0.83721315  0.65048560     0.93600
O3293       O  0.48810770  0.86300808  0.73439207    -0.81800
Mg3294     Mg  0.95274802  0.79247962  0.65232473     1.58200
O3295       O  0.84025049  0.84073441  0.71951713    -0.80200
O3296       O  0.94229741  0.80407824  0.59126554    -0.81800
C3297       C  0.81509869  0.92926115  0.88071893    -0.09900
C3298       C  0.81832400  0.90817722  0.89477993    -0.03800
C3299       C  0.82731911  0.88782968  0.88569835    -0.09900
C3300       C  0.83241571  0.88771185  0.86157408     0.11000
C3301       C  0.83102310  0.91025175  0.84720591    -0.01700
C3302       C  0.82333864  0.93183738  0.85691088     0.10800
C3303       C  0.82406362  0.95511671  0.84256494    -0.11700
C3304       C  0.83278160  0.95749810  0.81913686    -0.11700
C3305       C  0.83935756  0.93563834  0.80900886     0.10800
C3306       C  0.83761013  0.91131859  0.82312460    -0.01700
C3307       C  0.83947840  0.86622245  0.85149560    -0.11900
C3308       C  0.84349041  0.86576597  0.82768225    -0.11900
C3309       C  0.84284403  0.88819629  0.81325827     0.11000
C3310       C  0.84731336  0.88813953  0.78916772    -0.09900
C3311       C  0.85087599  0.91311506  0.77568197    -0.03800
C3312       C  0.84831749  0.93750623  0.78532272    -0.09900
H3313       H  0.81855121  0.97207104  0.84949939     0.08300
H3314       H  0.83378744  0.97626941  0.80894071     0.08300
H3315       H  0.84168773  0.84928675  0.86180526     0.08500
H3316       H  0.84786558  0.84805541  0.82075993     0.08500
H3317       H  0.81346256  0.90744099  0.91324961     0.04900
H3318       H  0.85642362  0.91390760  0.75734005     0.04900
C3319       C  0.49913971  0.73136164  0.44563761    -0.09900
C3320       C  0.50512290  0.75876391  0.43435579    -0.03800
C3321       C  0.50610969  0.78362782  0.44627448    -0.09900
C3322       C  0.49965719  0.78079660  0.47032910     0.11000
C3323       C  0.49287622  0.75289353  0.48215613    -0.01700
C3324       C  0.49280517  0.72810045  0.46984982     0.10800
C3325       C  0.48521841  0.70053438  0.48192042    -0.11700
C3326       C  0.97569530  0.69387091  0.50662387    -0.11700
C3327       C  0.97675551  0.71839641  0.51937434     0.10800
C3328       C  0.98382832  0.74635611  0.50749731    -0.01700
C3329       C  0.49854520  0.80454137  0.48264543    -0.11900
C3330       C  0.99071227  0.79846839  0.50783122    -0.11900
C3331       C  0.98431921  0.77124085  0.51978241     0.11000
C3332       C  0.97822683  0.76827876  0.54376383    -0.09900
C3333       C  0.97140662  0.74080249  0.55524462    -0.03800
C3334       C  0.96986588  0.71560263  0.54351812    -0.09900
H3335       H  0.48425273  0.68095607  0.47303419     0.08300
H3336       H  0.97006351  0.67216470  0.51502922     0.08300
H3337       H  0.50294715  0.82580359  0.47416817     0.08500
H3338       H  0.99148336  0.81795565  0.51674514     0.08500
H3339       H  0.50975536  0.76105779  0.41579321     0.04900
H3340       H  0.96595641  0.73850075  0.57368122     0.04900
C3341       C  0.69964948  0.74766518  0.46489271    -0.09900
C3342       C  0.72191550  0.77755124  0.45773600    -0.03800
C3343       C  0.75264947  0.79166455  0.46532171    -0.09900
C3344       C  0.75931926  0.77926900  0.48501349     0.11000
C3345       C  0.73583640  0.75049930  0.49460645    -0.01700
C3346       C  0.70605904  0.73420071  0.48413071     0.10800
C3347       C  0.68394474  0.70495814  0.49297219    -0.11700
C3348       C  0.69099468  0.69174199  0.51157480    -0.11700
C3349       C  0.72069882  0.70698068  0.52183750     0.10800
C3350       C  0.74283305  0.73715995  0.51376586    -0.01700
C3351       C  0.78858671  0.79504631  0.49552288    -0.11900
C3352       C  0.79459950  0.78296405  0.51534888    -0.11900
C3353       C  0.77211130  0.75389620  0.52459901     0.11000
C3354       C  0.77852400  0.74087131  0.54407752    -0.09900
C3355       C  0.75768318  0.70998653  0.55060622    -0.03800
C3356       C  0.72898126  0.69258823  0.53957578    -0.09900
H3357       H  0.66088975  0.69211744  0.48570782     0.08300
H3358       H  0.67254207  0.66955972  0.51799574     0.08300
H3359       H  0.80672096  0.81729969  0.48883973     0.08500
H3360       H  0.81745249  0.79612251  0.52293029     0.08500
H3361       H  0.71617035  0.78740927  0.44319388     0.04900
H3362       H  0.76411219  0.69971179  0.56441186     0.04900
C3363       C  0.73197215  0.98301856  0.44699238    -0.09900
C3364       C  0.75986227  0.98552905  0.43826648    -0.03800
C3365       C  0.78673276  0.99680835  0.45148442    -0.09900
C3366       C  0.78626808  0.00609402  0.47448290     0.11000
C3367       C  0.75908245  0.00581402  0.48335195    -0.01700
C3368       C  0.73185885  0.99437249  0.46962948     0.10800
C3369       C  0.70556219  0.99499275  0.47893205    -0.11700
C3370       C  0.69641305  0.48756166  0.50138228    -0.11700
C3371       C  0.71910704  0.49494013  0.51846461     0.10800
C3372       C  0.74625037  0.49335973  0.51256095    -0.01700
C3373       C  0.81254636  0.01663737  0.48852192    -0.11900
C3374       C  0.79821838  0.50299378  0.52160591    -0.11900
C3375       C  0.77118138  0.50405796  0.52836257     0.11000
C3376       C  0.76853428  0.51612530  0.55014350    -0.09900
C3377       C  0.74027406  0.51528320  0.55634601    -0.03800
C3378       C  0.71499506  0.50371931  0.54114214    -0.09900
H3379       H  0.68403780  0.98569320  0.46971122     0.08300
H3380       H  0.67680818  0.49128921  0.50410294     0.08300
H3381       H  0.83346994  0.01695600  0.48229569     0.08500
H3382       H  0.81840337  0.51200566  0.53252288     0.08500
H3383       H  0.76140661  0.97968819  0.42041129     0.04900
H3384       H  0.73763627  0.52241798  0.57353958     0.04900
O3385       O  0.50957362  0.96296597  0.02375071    -0.87400
C3386       C  0.56064452  0.51992412  0.96666491     0.88600
Mg3387     Mg  0.95988617  0.92880735  0.02149860     1.58100
O3388       O  0.54234327  0.55413832  0.01348588    -0.87200
O3389       O  0.54385797  0.49913524  0.04248590    -0.74500
C3390       C  0.89339293  0.00829143  0.98327548     0.93600
O3391       O  0.49735680  0.94802464  0.96923477    -0.74300
O3392       O  0.89059871  0.98151709  0.98098079    -0.81800
Mg3393     Mg  0.53744189  0.96157761  0.99459293     1.58000
C3394       C  0.50664932  0.61438481  0.99565376     0.93600
O3395       O  0.58159181  0.97104983  0.01401700    -0.80100
H3396       H  0.54391471  0.56422368  0.04710310    -0.05400
C3397       C  0.98471823  0.53294951  0.96173118     0.88500
O3398       O  0.94645518  0.96141227  0.03995834    -0.74600
O3399       O  0.55612785  0.51005824  0.98679385    -0.87400
O3400       O  0.53078441  0.61198476  0.99125808    -0.80200
C3401       C  0.61680128  0.60621529  0.99032610     0.93700
C3402       C  0.60953129  0.49522444  0.01596959     0.93500
Mg3403     Mg  0.96516191  0.54223637  0.01009221     1.58000
O3404       O  0.92223073  0.53311592  0.98961228    -0.80100
O3405       O  0.00436047  0.55485290  0.03610187    -0.74300
O3406       O  0.61402682  0.58127895  0.99861607    -0.80200
O3407       O  0.52001045  0.91103225  0.00147082    -0.81900
O3408       O  0.88713487  0.91996443  0.00199449    -0.80200
C3409       C  0.53050280  0.55756230  0.03140791     0.88000
O3410       O  0.94555888  0.99259270  0.01372113    -0.87300
O3411       O  0.99434514  0.54311484  0.98115420    -0.87400
O3412       O  0.95868239  0.00342204  0.95866208    -0.74500
Mg3413     Mg  0.57602567  0.53821573  0.01721062     1.58000
O3414       O  0.59365356  0.60837562  0.98322680    -0.81900
H3415       H  0.50907730  0.96066443  0.05832583    -0.05600
O3416       O  0.95865969  0.94756945  0.98741097    -0.87100
H3417       H  0.95561261  0.93620850  0.95400243    -0.05400
H3418       H  0.93369799  0.99358207  0.04682219    -0.05600
C3419       C  0.96974422  0.94357582  0.96933288     0.87900
C3420       C  0.52004780  0.97418282  0.04279157     0.88500
C3421       C  0.94120655  0.98287939  0.03388986     0.88600
H3422       H  0.99598055  0.54752689  0.94667050    -0.05600
O3423       O  0.55560816  0.54156698  0.96070043    -0.74600
Mg3424     Mg  0.92560483  0.96400795  0.98347062     1.58000
H3425       H  0.56818447  0.50928181  0.95370127    -0.05600
C3426       C  0.99573538  0.88870351  0.00537623     0.93600
O3427       O  0.90787700  0.89404625  0.01893340    -0.81800
C3428       C  0.88449714  0.89555510  0.01144447     0.93600
O3429       O  0.61176844  0.52165644  0.01877298    -0.81800
Mg3430     Mg  0.54200292  0.57383038  0.97956329     1.58200
O3431       O  0.97152078  0.89070659  0.01045200    -0.80200
O3432       O  0.98180071  0.59285877  0.00490647    -0.81800
O3433       O  0.81823316  0.70552461  0.35255800    -0.87400
C3434       C  0.77885632  0.64352972  0.29946894     0.88600
Mg3435     Mg  0.86652041  0.74369006  0.34943137     1.58100
O3436       O  0.79582875  0.61557034  0.35027901    -0.87200
O3437       O  0.78409904  0.66623949  0.37371262    -0.74500
C3438       C  0.94722799  0.67703023  0.32345354     0.93600
O3439       O  0.83231876  0.71906852  0.29797616    -0.74300
O3440       O  0.94816055  0.70287443  0.32228510    -0.81800
Mg3441     Mg  0.79000233  0.70145700  0.32349167     1.58000
C3442       C  0.83918565  0.56248680  0.34148279     0.93600
O3443       O  0.74414334  0.68531441  0.34517366    -0.80100
H3444       H  0.79101602  0.60649032  0.38435012    -0.05400
C3445       C  0.86065150  0.64327331  0.29724197     0.88500
O3446       O  0.88303068  0.71678599  0.37238093    -0.74600
O3447       O  0.78028805  0.65415967  0.31901228    -0.87400
O3448       O  0.81387717  0.56288891  0.33928752    -0.80200
C3449       C  0.72680122  0.55614348  0.32502504     0.93700
C3450       C  0.71857017  0.65956809  0.34379976     0.93500
Mg3451     Mg  0.87687941  0.63725044  0.34595259     1.58000
O3452       O  0.92149818  0.65138166  0.32377083    -0.80100
O3453       O  0.83473763  0.62117218  0.37131370    -0.74300
O3454       O  0.72638235  0.58129841  0.32743647    -0.80200
O3455       O  0.80085318  0.75123832  0.32996988    -0.81900
O3456       O  0.94160075  0.75656389  0.33944212    -0.80200
C3457       C  0.80628071  0.61391168  0.36921373     0.88000
O3458       O  0.88720660  0.68459005  0.34903897    -0.87300
O3459       O  0.84913139  0.63260164  0.31657931    -0.87400
O3460       O  0.88187692  0.67148630  0.29448487    -0.74500
Mg3461     Mg  0.75783586  0.62491677  0.34861313     1.58000
O3462       O  0.75216260  0.55567608  0.32354444    -0.81900
H3463       H  0.81395067  0.70872450  0.38682578    -0.05600
O3464       O  0.87122525  0.72312997  0.31819619    -0.87100
H3465       H  0.87582332  0.73388192  0.28440270    -0.05400
H3466       H  0.89762713  0.68702889  0.38259839    -0.05600
C3467       C  0.86069209  0.72580601  0.29959816     0.87900
C3468       C  0.80599275  0.69434789  0.37163380     0.88500
C3469       C  0.88979060  0.69567384  0.36852400     0.88600
H3470       H  0.85227580  0.62840004  0.28232404    -0.05600
O3471       O  0.78582578  0.62246096  0.29590633    -0.74600
Mg3472     Mg  0.90890687  0.71295840  0.31895675     1.58000
H3473       H  0.77173278  0.65243492  0.28510705    -0.05600
C3474       C  0.82719784  0.77611431  0.33074476     0.93600
O3475       O  0.91715017  0.78340555  0.34422519    -0.81800
C3476       C  0.94218897  0.78219242  0.34188636     0.93600
O3477       O  0.71804842  0.63392332  0.34429936    -0.81800
Mg3478     Mg  0.80153862  0.59511644  0.31941436     1.58200
O3479       O  0.85279196  0.77583061  0.33076100    -0.80200
O3480       O  0.86560695  0.58723065  0.34201495    -0.81800
O3481       O  0.64715026  0.86274836  0.68298513    -0.87400
C3482       C  0.60570522  0.80564710  0.62829857     0.88600
Mg3483     Mg  0.69435108  0.90116362  0.68147042     1.58100
O3484       O  0.62886740  0.77337087  0.67331022    -0.87200
O3485       O  0.61720666  0.82117557  0.70367820    -0.74500
C3486       C  0.77917647  0.84151133  0.64482671     0.93600
O3487       O  0.65949447  0.87963420  0.62932195    -0.74300
O3488       O  0.78108055  0.86782264  0.64724465    -0.81800
Mg3489     Mg  0.61758236  0.86030056  0.65543260     1.58000
C3490       C  0.67609168  0.72549339  0.65334663     0.93600
O3491       O  0.57193191  0.84219323  0.67864756    -0.80100
H3492       H  0.62576532  0.75822924  0.70594287    -0.05400
C3493       C  0.69245210  0.81074540  0.61889033     0.88500
O3494       O  0.71168667  0.87173516  0.70040007    -0.74600
O3495       O  0.60790749  0.81361114  0.64874534    -0.87400
O3496       O  0.65004474  0.72475648  0.65159445    -0.80200
C3497       C  0.55899167  0.71537925  0.64812890     0.93700
C3498       C  0.54738686  0.81549071  0.68121131     0.93500
Mg3499     Mg  0.71028822  0.79885479  0.66470702     1.58000
O3500       O  0.75320043  0.81786599  0.64000861    -0.80100
O3501       O  0.66924380  0.77695143  0.69127492    -0.74300
O3502       O  0.55846550  0.73835474  0.65733369    -0.80200
O3503       O  0.62860152  0.91036508  0.66201483    -0.81900
O3504       O  0.77076843  0.92155094  0.66665845    -0.80200
C3505       C  0.64042740  0.76887458  0.69070535     0.88000
O3506       O  0.71865329  0.84501602  0.67330783    -0.87300
O3507       O  0.68069332  0.79740412  0.63750541    -0.87400
O3508       O  0.71397107  0.83908110  0.61819879    -0.74500
Mg3509     Mg  0.59010452  0.78191883  0.67780379     1.58000
O3510       O  0.58410342  0.71680738  0.64085481    -0.81900
H3511       H  0.64550359  0.86341224  0.71759367    -0.05600
O3512       O  0.70109264  0.88628986  0.64751699    -0.87100
H3513       H  0.70239535  0.89701023  0.61394924    -0.05400
H3514       H  0.72805664  0.84217983  0.70651299    -0.05600
C3515       C  0.68849802  0.88820281  0.62969893     0.87900
C3516       C  0.63696190  0.84995354  0.70201000     0.88500
C3517       C  0.72004435  0.85252584  0.69383329     0.88600
H3518       H  0.68445893  0.79807996  0.60291487    -0.05600
O3519       O  0.61469155  0.78709526  0.62138784    -0.74600
Mg3520     Mg  0.74012007  0.87775812  0.64529468     1.58000
H3521       H  0.59662932  0.81532090  0.61586689    -0.05600
C3522       C  0.65507822  0.93516070  0.66301039     0.93600
O3523       O  0.74328797  0.94240343  0.68079339    -0.81800
C3524       C  0.76908390  0.94434161  0.67513655     0.93600
O3525       O  0.54860674  0.79051952  0.68040851    -0.81800
Mg3526     Mg  0.63365177  0.75831532  0.63883346     1.58200
O3527       O  0.68027419  0.93469543  0.66589366    -0.80200
O3528       O  0.70171135  0.75077967  0.65543382    -0.81800
C3529       C  0.85109962  0.86383892  0.77749429    -0.15500
C3530       C  0.83481196  0.85027177  0.75845005    -0.30700
H3531       H  0.87096601  0.86135814  0.78223282     0.13500
H3532       H  0.81544198  0.85368363  0.75384779     0.14100
C3533       C  0.82256938  0.75193153  0.57025017    -0.15500
C3534       C  0.80392121  0.76065617  0.55996411    -0.30700
H3535       H  0.82306431  0.73127422  0.56485679     0.13500
H3536       H  0.80561281  0.78257558  0.56475885     0.14100
C3537       C  0.97386682  0.79122491  0.55693519    -0.15500
C3538       C  0.98516257  0.79906244  0.57828453    -0.30700
H3539       H  0.95620868  0.79639129  0.55088103     0.13500
H3540       H  0.00326180  0.79422714  0.58387887     0.14100
C3541       C  0.88324678  0.97879672  0.75787851    -0.15500
C3542       C  0.85582710  0.96438746  0.76985409    -0.30700
H3543       H  0.90296891  0.47375253  0.76649719     0.13500
H3544       H  0.83857018  0.97161839  0.76767278     0.14100
C3545       C  0.79472421  0.53040961  0.56690083    -0.15500
C3546       C  0.80754560  0.51475371  0.57658720    -0.30700
H3547       H  0.80130082  0.55341515  0.57319665     0.13500
H3548       H  0.79846756  0.49052579  0.57225514     0.14100
C3549       C  0.96078950  0.68717214  0.55764371    -0.15500
C3550       C  0.93526498  0.67531947  0.57176901    -0.30700
H3551       H  0.97647786  0.67778289  0.55801279     0.13500
H3552       H  0.91862549  0.68344608  0.57012651     0.14100
C3553       C  0.50439893  0.88105796  0.78300983    -0.15500
C3554       C  0.48547956  0.88608548  0.76956262    -0.30700
H3555       H  0.50615435  0.86030925  0.78059742     0.13500
H3556       H  0.98092152  0.90478206  0.77389822     0.14100
C3557       C  0.54262831  0.66597981  0.76212172    -0.15500
C3558       C  0.51447067  0.64014254  0.76084398    -0.30700
H3559       H  0.55050181  0.68303883  0.74814286     0.13500
H3560       H  0.00705104  0.62117547  0.77619364     0.14100
C3561       C  0.59312735  0.97562014  0.75663221    -0.15500
C3562       C  0.59395087  0.98253816  0.77934866    -0.30700
H3563       H  0.58947829  0.46481344  0.75367475     0.13500
H3564       H  0.60853205  0.00612127  0.78527959     0.14100
C3565       C  0.65297913  0.65807184  0.75666314    -0.15500
C3566       C  0.62820263  0.64310721  0.77114206    -0.30700
H3567       H  0.66286099  0.68290633  0.75401796     0.13500
H3568       H  0.61619370  0.61794385  0.77227480     0.14100
C3569       C  0.67076559  0.50486293  0.56610652    -0.15500
C3570       C  0.68234700  0.49464916  0.54912194    -0.30700
H3571       H  0.64541284  0.49257353  0.56789916     0.13500
H3572       H  0.66397771  0.47522507  0.53993126     0.14100
C3573       C  0.70840532  0.64055707  0.56141787    -0.15500
C3574       C  0.70982805  0.65836397  0.54333067    -0.30700
H3575       H  0.69501778  0.61567854  0.55850270     0.13500
H3576       H  0.69691084  0.64513514  0.52844457     0.14100
C3577       C  0.52168427  0.84169042  0.90539502    -0.15500
C3578       C  0.54957292  0.85016010  0.89513043    -0.30700
H3579       H  0.51064474  0.85560783  0.90258693     0.13500
H3580       H  0.56216056  0.83833244  0.90005219     0.14100
C3581       C  0.57365997  0.73801709  0.90124679    -0.15500
C3582       C  0.56401390  0.71476098  0.88579596    -0.30700
H3583       H  0.59674066  0.75831960  0.89895578     0.13500
H3584       H  0.54005295  0.69567660  0.88642395     0.14100
C3585       C  0.83072204  0.86736992  0.90261284    -0.15500
C3586       C  0.81209453  0.83648598  0.90230007    -0.30700
H3587       H  0.84366244  0.87824179  0.91816421     0.13500
H3588       H  0.79683734  0.82580764  0.88770432     0.14100
C3589       C  0.66567974  0.72137063  0.88280724    -0.15500
C3590       C  0.66111735  0.70975792  0.90440692    -0.30700
H3591       H  0.68895391  0.73756074  0.87610788     0.13500
H3592       H  0.63766197  0.69214788  0.90995088     0.14100
C3593       C  0.64849951  0.97049421  0.90725617    -0.15500
C3594       C  0.64631566  0.95077258  0.89049917    -0.30700
H3595       H  0.62970552  0.97575886  0.90929214     0.13500
H3596       H  0.66385908  0.94371951  0.88921999     0.14100
C3597       C  0.80394223  0.94848726  0.89229507    -0.15500
C3598       C  0.77573133  0.93493373  0.90305707    -0.30700
H3599       H  0.82057671  0.97292360  0.89484709     0.13500
H3600       H  0.75876296  0.91082030  0.89967304     0.14100
C3601       C  0.94977099  0.80524784  0.11528429    -0.15500
C3602       C  0.93695067  0.77816955  0.10361953    -0.30700
H3603       H  0.97441222  0.82218360  0.11291352     0.13500
H3604       H  0.91265565  0.76079811  0.10704864     0.14100
C3605       C  0.85733658  0.81432691  0.10559825    -0.15500
C3606       C  0.83915674  0.78503735  0.09867917    -0.30700
H3607       H  0.85444418  0.83316776  0.09890491     0.13500
H3608       H  0.84138421  0.76635372  0.10655056     0.14100
C3609       C  0.81509062  0.00070906  0.43914823    -0.15500
C3610       C  0.82417201  0.97949368  0.44128928    -0.30700
H3611       H  0.82179993  0.01501466  0.42344604     0.13500
H3612       H  0.81577159  0.96375264  0.45625098     0.14100
C3613       C  0.77181057  0.83168808  0.43455507    -0.15500
C3614       C  0.77740541  0.81386053  0.44894265    -0.30700
H3615       H  0.75254625  0.83582356  0.43811753     0.13500
H3616       H  0.79843183  0.81229637  0.44644591     0.14100
C3617       C  0.84897664  0.85880941  0.23611502    -0.15500
C3618       C  0.87108059  0.87759141  0.22067107    -0.30700
H3619       H  0.84494887  0.83542044  0.23869827     0.13500
H3620       H  0.87690719  0.90163030  0.21872391     0.14100
C3621       C  0.53762252  0.83929391  0.43439386    -0.15500
C3622       C  0.51216945  0.81098419  0.43199387    -0.30700
H3623       H  0.55250069  0.84400510  0.44927748     0.13500
H3624       H  0.49867835  0.80585705  0.41627842     0.14100
C3625       C  0.70474970  0.97155545  0.43110325    -0.15500
C3626       C  0.69993410  0.95195396  0.41351366    -0.30700
H3627       H  0.68917710  0.98122430  0.43262801     0.13500
H3628       H  0.71503661  0.94195200  0.41075474     0.14100
C3629       C  0.97784781  0.89294726  0.24814301    -0.15500
C3630       C  0.96424755  0.86814355  0.23416237    -0.30700
H3631       H  0.44685345  0.87627171  0.25579113     0.13500
H3632       H  0.97052732  0.85015508  0.23557965     0.14100
C3633       C  0.97983475  0.63425886  0.09688658    -0.15500
C3634       C  0.98297829  0.66245664  0.10065862    -0.30700
H3635       H  0.98858326  0.63017538  0.08065890     0.13500
H3636       H  0.97175833  0.66578514  0.11585151     0.14100
C3637       C  0.85274928  0.53699320  0.09319870    -0.15500
C3638       C  0.88003890  0.53700175  0.09276539    -0.30700
H3639       H  0.84792536  0.54843627  0.10736629     0.13500
H3640       H  0.88599054  0.52763448  0.07779982     0.14100
C3641       C  0.89282935  0.50895265  0.21722788    -0.15500
C3642       C  0.88952483  0.51918705  0.23820296    -0.30700
H3643       H  0.88003070  0.48446642  0.21302304     0.13500
H3644       H  0.90219327  0.54400331  0.24145589     0.14100
C3645       C  0.66664595  0.63780077  0.10420754    -0.15500
C3646       C  0.68838897  0.66778461  0.10260029    -0.30700
H3647       H  0.65041028  0.62749823  0.09008170     0.13500
H3648       H  0.70607634  0.67755153  0.11585335     0.14100
C3649       C  0.69530953  0.55718822  0.10074691    -0.15500
C3650       C  0.72508339  0.57086251  0.09279191    -0.30700
H3651       H  0.67827315  0.53385186  0.09549992     0.13500
H3652       H  0.74239860  0.59354524  0.09901765     0.14100
C3653       C  0.64123849  0.49757986  0.22834971    -0.15500
C3654       C  0.62655230  0.51006708  0.21716923    -0.30700
H3655       H  0.66440185  0.01376877  0.22521805     0.13500
H3656       H  0.60153769  0.50018877  0.22007436     0.14100
C3657       C  0.52119227  0.69856569  0.43298726    -0.15500
C3658       C  0.49975980  0.70747422  0.43053859    -0.30700
H3659       H  0.53419968  0.70384314  0.44894638     0.13500
H3660       H  0.48829381  0.70380441  0.41397996     0.14100
C3661       C  0.68064433  0.73250080  0.42570993    -0.15500
C3662       C  0.67353678  0.73001985  0.44859174    -0.30700
H3663       H  0.70510194  0.74523977  0.42016723     0.13500
H3664       H  0.64970277  0.71531418  0.45489750     0.14100
C3665       C  0.98618366  0.60181768  0.24005736    -0.15500
C3666       C  0.99501450  0.59861530  0.21845691    -0.30700
H3667       H  0.96135441  0.59111129  0.24428066     0.13500
H3668       H  0.01950024  0.61045672  0.21316302     0.14100
C3669       C  0.65590541  0.61792702  0.23259667    -0.15500
C3670       C  0.63772140  0.63083110  0.23173196    -0.30700
H3671       H  0.66688383  0.61827031  0.24886085     0.13500
H3672       H  0.62422544  0.62789340  0.21629460     0.14100
loop_ 
_geom_bond_atom_site_label_1 
_geom_bond_atom_site_label_2 
_geom_bond_distance 
_geom_bond_site_symmetry_2 
_ccdc_geom_bond_type 
O1           Mg3   2.140       .  S
O1           Mg9   2.166       .  S
O1           C36   1.234       .  S
C2           O15   1.235       .  S
C2           O39   1.270       .  A
C2           H41   1.081       .  S
Mg3          O32   2.161       .  S
Mg3          O47   2.335       .  S
Mg3          O14   2.296       .  S
Mg3        O1879   2.279   1_455  S
O4          Mg46   2.163       .  S
O4          Mg29   2.152       .  S
O4           C25   1.233       .  S
O5           C36   1.267       .  A
O5          Mg29   2.282       .  S
C6           O20   1.270       .  A
C6         O1844   1.271   1_455  A
C6         C2747   1.472   1_455  S
O7           C35   1.268       .  A
O7           Mg9   2.295       .  S
O8         C1842   1.269       .  A
O8        Mg1876   2.245       .  S
Mg9          O15   2.168       .  S
Mg9          O23   2.281       .  S
Mg9          O11   2.311       .  S
C10          O48   1.267       .  A
C10          O16   1.282       .  A
C10         C916   1.477       .  S
O11          C18   1.274       .  A
H12          C25   1.081       .  S
C13          O27   1.235       .  S
C13          O28   1.268       .  A
C13          H38   1.081       .  S
O14          C37   1.270       .  A
O15         Mg29   2.175       .  S
O16         Mg46   2.347       .  S
C17          O30   1.276       .  A
C17          O22   1.270       .  A
C17         C696   1.464       .  S
C18          O45   1.270       .  A
C18         C907   1.467       .  S
Mg19         O26   2.145       .  S
Mg19         O27   2.174       .  S
Mg19         O20   2.294       .  S
Mg19         O21   2.292       .  S
Mg19         O48   2.223       .  S
O21          C25   1.267       .  A
O22         Mg29   2.283       .  S
O23          C42   1.275       .  A
O24          C44   1.267       .  A
O24       Mg1876   2.263       .  S
O26         Mg40   2.167       .  S
O26          C37   1.236       .  S
O27         Mg46   2.148       .  S
O28         Mg40   2.290       .  S
Mg29         O45   2.241       .  S
O30         Mg46   2.287       .  S
H31          C36   1.082       .  S
O32         Mg40   2.151       .  S
O32          C35   1.234       .  S
H33          C35   1.081   1_655  S
H34          C37   1.081       .  S
O39         Mg46   2.301       .  S
Mg40       O1844   2.262   1_455  S
Mg40       O1860   2.277   1_455  S
C42          O47   1.282       .  A
C42         C903   1.488       .  S
O43          C44   1.272       .  A
O43       Mg1839   2.264       .  S
C44         C684   1.455       .  S
C49         C915   1.490       .  S
C49          C50   1.402       .  A
C49          C54   1.422       .  A
C50          H69   1.085       .  S
C50          C51   1.402       .  A
C51         C900   1.491       .  S
C51          C52   1.410       .  A
C52          C53   1.421       .  A
C52          C59   1.405       .  A
C53          C54   1.422       .  A
C53          C58   1.417       .  A
C54          C55   1.411       .  A
C55          H65   1.079       .  S
C55          C56   1.398       .  A
C56          H66   1.082       .  S
C56          C57   1.403       .  A
C57          C58   1.418       .  A
C57          C64   1.414       .  A
C58          C61   1.418       .  A
C59          H67   1.083       .  S
C59          C60   1.395       .  A
C60          H68   1.082       .  S
C60          C61   1.405       .  A
C61          C62   1.412       .  A
C62         C895   1.477       .  S
C62          C63   1.395       .  A
C63          H70   1.086       .  S
C63          C64   1.398       .  A
C64         C891   1.479       .  S
C71         C912   1.492       .  S
C71          C72   1.391       .  A
C71          C76   1.416       .  A
C72          H91   1.086       .  S
C72          C73   1.391       .  A
C73         C887   1.492       .  S
C73          C74   1.417       .  A
C74          C75   1.427       .  A
C74          C81   1.404       .  A
C75          C76   1.426       .  A
C75          C80   1.423       .  A
C76          C77   1.404       .  A
C77          H87   1.082       .  S
C77          C78   1.396       .  A
C78          H88   1.082       .  S
C78          C79   1.406       .  A
C79          C80   1.425       .  A
C79          C86   1.417       .  A
C80          C83   1.424       .  A
C81          H89   1.083       .  S
C81          C82   1.399       .  A
C82          H90   1.083       .  S
C82          C83   1.408       .  A
C83          C84   1.419       .  A
C84         C884   1.490       .  S
C84          C85   1.400       .  A
C85          H92   1.086       .  S
C85          C86   1.400       .  A
C86         C879   1.490       .  S
O93         Mg95   2.133       .  S
O93        Mg101   2.137       .  S
O93         C128   1.232       .  S
C94         O107   1.237       .  S
C94         O131   1.271       .  A
C94         H133   1.081       .  S
Mg95        O124   2.149       .  S
Mg95        O139   2.282       .  S
Mg95        O106   2.299       .  S
Mg95       O1053   2.253       .  S
O96        Mg138   2.156       .  S
O96        Mg121   2.152       .  S
O96         C117   1.235       .  S
O97         C128   1.265       .  A
O97        Mg121   2.285       .  S
C98         O100   1.271       .  A
C98         O112   1.279       .  A
C98         C872   1.480       .  S
O99         C127   1.272       .  A
O99        Mg101   2.310       .  S
O100       Mg132   2.253       .  S
Mg101       O107   2.166       .  S
Mg101       O115   2.304       .  S
Mg101       O103   2.312       .  S
C102        O140   1.273       .  A
C102        O108   1.273       .  A
C102        C867   1.479       .  S
O103        C110   1.276   1_455  A
H104        C117   1.082       .  S
C105        O119   1.232       .  S
C105        O120   1.266       .  A
C105        H130   1.081       .  S
O106        C129   1.272       .  A
O107       Mg121   2.190       .  S
O108       Mg138   2.283       .  S
C109        O122   1.270       .  A
C109        O114   1.275       .  A
C109        C722   1.472       .  S
C110       O1973   1.275       .  A
C110       C2711   1.469       .  S
Mg111       O118   2.156       .  S
Mg111       O119   2.154       .  S
Mg111       O112   2.335       .  S
Mg111       O113   2.312       .  S
Mg111       O140   2.284       .  S
O113        C117   1.271       .  A
O114      Mg1957   2.311       .  S
O115        C134   1.276       .  A
O116        C136   1.274       .  A
O116      Mg1050   2.302   1_545  S
O118       Mg132   2.185       .  S
O118        C129   1.239       .  S
O119       Mg138   2.149       .  S
O120       Mg132   2.291       .  S
Mg121      O1950   2.304   1_455  S
Mg121      O1973   2.272   1_455  S
O122      Mg1974   2.273       .  S
H123        C128   1.081       .  S
O124       Mg132   2.136       .  S
O124        C127   1.236       .  S
H125        C127   1.081       .  S
H126        C129   1.081       .  S
O131       Mg138   2.297       .  S
Mg132      O1034   2.284       .  S
C134        O139   1.268       .  A
C134       C1817   1.471       .  S
O135        C136   1.264       .  A
O135      Mg1013   2.241   1_545  S
C136        C695   1.459       .  S
O137       C1946   1.275       .  A
O137      Mg1957   2.267       .  S
Mg138      O1958   2.274   1_455  S
O141       Mg143   2.143       .  S
O141       Mg149   2.149       .  S
O141        C176   1.232       .  S
C142        O155   1.237       .  S
C142        O179   1.272       .  A
C142        H181   1.080       .  S
Mg143       O172   2.142       .  S
Mg143       O187   2.282       .  S
Mg143       O183   2.272       .  S
Mg143       O154   2.306       .  S
O144       Mg186   2.150       .  S
O144       Mg169   2.145       .  S
O144        C165   1.235       .  S
O145        C176   1.266       .  A
O145       Mg169   2.290       .  S
C146        O148   1.271       .  A
C146        O160   1.273       .  A
C146        C859   1.464       .  S
O147        C175   1.271       .  A
O147       Mg149   2.305       .  S
O148       Mg180   2.246       .  S
Mg149       O155   2.175       .  S
Mg149       O163   2.280       .  S
Mg149       O151   2.284       .  S
C150        O188   1.274       .  A
C150        O156   1.272       .  A
C150        C856   1.481       .  S
O151        C158   1.271       .  A
H152        C165   1.082       .  S
C153        O167   1.234       .  S
C153        O168   1.268       .  A
C153        H178   1.082       .  S
O154        C177   1.272       .  A
O155       Mg169   2.187       .  S
O156       Mg186   2.302       .  S
C157        O170   1.268       .  A
C157        O162   1.274       .  A
C157        C688   1.466       .  S
C158       O1103   1.273       .  A
C158       C1806   1.468       .  S
Mg159       O166   2.180       .  S
Mg159       O167   2.148       .  S
Mg159       O160   2.292       .  S
Mg159       O161   2.309       .  S
Mg159       O188   2.297       .  S
O161        C165   1.271       .  A
O162      Mg1087   2.303   1_545  S
O163        C182   1.270       .  A
O164        C184   1.277       .  A
O164       Mg180   2.324       .  S
O166       Mg180   2.182       .  S
O166        C177   1.237       .  S
O167       Mg186   2.151       .  S
O168       Mg180   2.299       .  S
Mg169      O1080   2.304       .  S
Mg169      O1103   2.265       .  S
O170      Mg1104   2.268   1_545  S
H171        C176   1.081       .  S
O172       Mg180   2.126       .  S
O172        C175   1.236       .  S
H173        C175   1.081       .  S
H174        C177   1.081       .  S
O179       Mg186   2.306       .  S
C182        O187   1.271       .  A
C182        C863   1.477       .  S
O183        C184   1.269       .  A
C184        C720   1.471       .  S
O185       C1076   1.274   1_545  A
O185      Mg1087   2.269   1_545  S
Mg186      O1088   2.273       .  S
C189        C876   1.499       .  S
C189        C190   1.404       .  A
C189        C194   1.426       .  A
C190        H209   1.083       .  S
C190        C191   1.392       .  A
C191        C864   1.478       .  S
C191        C192   1.405       .  A
C192        C193   1.421       .  A
C192        C199   1.403       .  A
C193        C194   1.424       .  A
C193        C198   1.420       .  A
C194        C195   1.411       .  A
C195        H205   1.081       .  S
C195        C196   1.401       .  A
C196        H206   1.083       .  S
C196        C197   1.404       .  A
C197        C198   1.425       .  A
C197        C204   1.420       .  A
C198        C201   1.422       .  A
C199        H207   1.082       .  S
C199        C200   1.387       .  A
C200        H208   1.082       .  S
C200        C201   1.403       .  A
C201        C202   1.405       .  A
C202        C851   1.475       .  S
C202        C203   1.388       .  A
C203        H210   1.086       .  S
C203        C204   1.393       .  A
C204        C847   1.488       .  S
O211       Mg213   2.175       .  S
O211      Mg1137   2.185   1_545  S
O211        C246   1.236       .  S
C212        O225   1.235       .  S
C212        O249   1.269   1_556  A
C212        H251   1.081       .  S
Mg213      O1160   2.156   1_545  S
Mg213       O253   2.294       .  S
Mg213       O224   2.308       .  S
Mg213      O1175   2.266   1_545  S
O214       Mg239   2.146   1_554  S
O214      Mg1174   2.155       .  S
O214        C235   1.235       .  S
O215        C246   1.272       .  A
O215       Mg239   2.309       .  S
C216        O218   1.277       .  A
C216        O230   1.279       .  A
C216        C883   1.490       .  S
O217        C245   1.270       .  A
O217       Mg219   2.299       .  S
O218      Mg1168   2.293       .  S
Mg219       O225   2.157       .  S
Mg219      O1129   2.175       .  S
Mg219       O233   2.303       .  S
Mg219       O221   2.319       .  S
C220        O258   1.276       .  A
C220        O226   1.266       .  A
C220        C896   1.477       .  S
O221        C228   1.279       .  A
H222        C235   1.081   1_556  S
C223        O237   1.236       .  S
C223        O238   1.271       .  A
C223        H248   1.082       .  S
O224        C247   1.271   1_556  A
O225      Mg1157   2.155       .  S
O226      Mg1174   2.235       .  S
C227        O240   1.270       .  A
C227        O232   1.278   1_554  A
C227       C1566   1.472       .  S
C228        O255   1.271       .  A
C228        C839   1.478       .  S
Mg229       O236   2.163       .  S
Mg229      O1155   2.181       .  S
Mg229       O230   2.332       .  S
Mg229       O231   2.298       .  S
Mg229       O258   2.315       .  S
O231        C235   1.269       .  A
O232      Mg1157   2.327       .  S
O233        C252   1.275       .  A
O234        C254   1.278   1_554  A
O234      Mg1168   2.328       .  S
O236      Mg1168   2.154       .  S
O236        C247   1.236       .  S
O237       Mg256   2.156       .  S
O237      Mg1147   2.179       .  S
O238       Mg250   2.307       .  S
Mg239      O1143   2.152   1_545  S
Mg239      O1150   2.340   1_545  S
Mg239      O1173   2.269   1_545  S
O240       Mg256   2.282       .  S
H241        C246   1.081       .  S
O242       Mg250   2.155   1_556  S
O242      Mg1131   2.163       .  S
O242        C245   1.236       .  S
H243        C245   1.081   1_554  S
H244        C247   1.081       .  S
O249       Mg256   2.299       .  S
Mg250      O1154   2.145       .  S
Mg250      O1136   2.286       .  S
Mg250      O1152   2.329       .  S
C252        O257   1.270       .  A
C252        C844   1.476       .  S
O253        C254   1.271       .  A
C254       C1554   1.476       .  S
O255      Mg1157   2.256       .  S
Mg256      O1132   2.157       .  S
Mg256      O1144   2.242       .  S
O257      Mg1131   2.265       .  S
O259       Mg261   2.142       .  S
O259       Mg267   2.141       .  S
O259        C294   1.236       .  S
C260        O273   1.234       .  S
C260        O297   1.269   1_556  A
C260        H299   1.081       .  S
Mg261       O290   2.162       .  S
Mg261       O305   2.243       .  S
Mg261       O301   2.232       .  S
Mg261       O272   2.294       .  S
O262       Mg304   2.160       .  S
O262       Mg287   2.152   1_554  S
O262        C283   1.238       .  S
O263        C294   1.273       .  A
O263       Mg287   2.323       .  S
C264        O266   1.277       .  A
C264        O278   1.270       .  A
C264        C892   1.477       .  S
O265        C293   1.272       .  A
O265       Mg267   2.308       .  S
O266       Mg298   2.287       .  S
Mg267       O273   2.151       .  S
Mg267       O281   2.268       .  S
Mg267       O269   2.278       .  S
C268        O306   1.267       .  A
C268        O274   1.264       .  A
C268        C852   1.456       .  S
O269        C276   1.266       .  A
H270        C283   1.082       .  S
C271        O285   1.234       .  S
C271        O286   1.269       .  A
C271        H296   1.082       .  S
O272        C295   1.267   1_556  A
O273       Mg287   2.134       .  S
O274       Mg304   2.239       .  S
C275        O288   1.264       .  A
C275        O280   1.280   1_554  A
C275        C674   1.464       .  S
C276        O303   1.275       .  A
C276        C832   1.477       .  S
Mg277       O284   2.134       .  S
Mg277       O285   2.145       .  S
Mg277       O278   2.287       .  S
Mg277       O279   2.310       .  S
Mg277       O306   2.257       .  S
O279        C283   1.273       .  A
O280       Mg287   2.344       .  S
O281        C300   1.268       .  A
O282        C302   1.279   1_554  A
O282       Mg298   2.331       .  S
O284       Mg298   2.141       .  S
O284        C295   1.233       .  S
O285       Mg304   2.136       .  S
O286       Mg298   2.304       .  S
Mg287       O303   2.296       .  S
O288       Mg304   2.233       .  S
H289        C294   1.081       .  S
O290       Mg298   2.151   1_556  S
O290        C293   1.237       .  S
H291        C293   1.081       .  S
H292        C295   1.081       .  S
O297       Mg304   2.302       .  S
C300        O305   1.264       .  A
C300        C836   1.460       .  S
O301        C302   1.264       .  A
C302        C647   1.460       .  S
O307       Mg309   2.168   1_455  S
O307      Mg2151   2.168   1_455  S
O307        C342   1.237       .  S
C308        O321   1.236       .  S
C308        O345   1.272   1_554  A
C308        H347   1.081       .  S
Mg309      O2174   2.183       .  S
Mg309       O349   2.302       .  S
Mg309       O320   2.294   1_655  S
Mg309      O2189   2.335       .  S
O310       Mg335   2.154   1_556  S
O310      Mg2188   2.168       .  S
O310        C331   1.233       .  S
O311        C342   1.272       .  A
O311       Mg335   2.308       .  S
C312        O314   1.270   1_455  A
C312        O326   1.273       .  A
C312        C823   1.486       .  S
O313        C341   1.267       .  A
O313       Mg315   2.296       .  S
O314      Mg2182   2.283       .  S
Mg315       O321   2.155       .  S
Mg315      O2143   2.170       .  S
Mg315       O329   2.236       .  S
Mg315       O317   2.315       .  S
C316        O354   1.266       .  A
C316        O322   1.280       .  A
C316        C827   1.465       .  S
O317        C324   1.272       .  A
H318        C331   1.081   1_554  S
C319        O333   1.235       .  S
C319        O334   1.268       .  A
C319        H344   1.081       .  S
O320        C343   1.267   1_554  A
O321      Mg2171   2.132       .  S
O322      Mg2188   2.337       .  S
C323        O336   1.277       .  A
C323        O328   1.268   1_556  A
C323       C2476   1.461       .  S
C324        O351   1.269       .  A
C324        C880   1.488       .  S
Mg325       O332   2.126       .  S
Mg325      O2169   2.176       .  S
Mg325       O326   2.294       .  S
Mg325       O327   2.290       .  S
Mg325       O354   2.219       .  S
O327        C331   1.267       .  A
O328      Mg2171   2.270       .  S
O329        C348   1.268       .  A
O330        C350   1.266   1_556  A
O330      Mg2182   2.254       .  S
O332      Mg2182   2.143   1_455  S
O332        C343   1.233       .  S
O333       Mg352   2.147       .  S
O333      Mg2161   2.174       .  S
O334       Mg346   2.282       .  S
Mg335      O2157   2.141   1_455  S
Mg335      O2164   2.279       .  S
Mg335      O2187   2.258       .  S
O336       Mg352   2.303       .  S
H337        C342   1.081       .  S
O338       Mg346   2.163   1_554  S
O338      Mg2145   2.177       .  S
O338        C341   1.233       .  S
H339        C341   1.081       .  S
H340        C343   1.082       .  S
O345       Mg352   2.314       .  S
Mg346      O2168   2.158       .  S
Mg346      O2150   2.265       .  S
Mg346      O2166   2.242       .  S
C348        O353   1.279       .  A
C348        C848   1.470       .  S
O349        C350   1.278       .  A
C350       C2508   1.456       .  S
O351      Mg2171   2.272       .  S
Mg352      O2146   2.169       .  S
Mg352      O2158   2.338       .  S
O353      Mg2145   2.331       .  S
O355       Mg357   2.149       .  S
O355       Mg363   2.167       .  S
O355        C390   1.232       .  S
C356        O369   1.237       .  S
C356        O393   1.272       .  A
C356        H395   1.081       .  S
Mg357       O386   2.161       .  S
Mg357       O401   2.331       .  S
Mg357       O368   2.311       .  S
Mg357      O1315   2.294   1_545  S
O358       Mg400   2.146       .  S
O358       Mg383   2.127       .  S
O358        C379   1.234       .  S
O359        C390   1.266       .  A
O359       Mg383   2.287       .  S
C360        O374   1.274   1_565  A
C360       O1280   1.271       .  A
C360       C1725   1.466       .  S
O361        C389   1.268       .  A
O361       Mg363   2.296       .  S
O362       C1278   1.272       .  A
O362      Mg1312   2.232       .  S
Mg363       O369   2.181       .  S
Mg363       O377   2.290       .  S
Mg363       O365   2.312       .  S
C364        O402   1.277       .  A
C364        O370   1.268       .  A
C364        C811   1.478       .  S
O365        C372   1.275       .  A
H366        C379   1.081       .  S
C367        O381   1.233       .  S
C367        O382   1.267       .  A
C367        H392   1.082       .  S
O368        C391   1.272       .  A
O369       Mg383   2.189       .  S
O370       Mg400   2.287       .  S
C371        O384   1.267       .  A
C371        O376   1.272       .  A
C371        C736   1.463       .  S
C372        O399   1.268       .  A
C372        C819   1.462       .  S
Mg373       O380   2.195       .  S
Mg373       O381   2.143       .  S
Mg373       O374   2.299       .  S
Mg373       O375   2.307       .  S
Mg373       O402   2.326       .  S
O375        C379   1.269       .  A
O376       Mg383   2.296       .  S
O377        C396   1.276       .  A
O378        C398   1.272       .  A
O378      Mg1312   2.298       .  S
O380       Mg394   2.189       .  S
O380        C391   1.236       .  S
O381       Mg400   2.141       .  S
O382       Mg394   2.293       .  S
Mg383       O399   2.217       .  S
O384       Mg400   2.254       .  S
H385        C390   1.081       .  S
O386       Mg394   2.151       .  S
O386        C389   1.233       .  S
H387        C389   1.081       .  S
H388        C391   1.081       .  S
O393       Mg400   2.304       .  S
Mg394      O1280   2.243   1_545  S
Mg394      O1296   2.301   1_545  S
C396        O401   1.280       .  A
C396        C815   1.490       .  S
O397        C398   1.269       .  A
O397      Mg1275   2.260       .  S
C398        C768   1.465       .  S
C403        C835   1.476       .  S
C403        C404   1.391       .  A
C403        C408   1.407       .  A
C404        H423   1.084       .  S
C404        C405   1.395       .  A
C405        C828   1.492       .  S
C405        C406   1.419       .  A
C406        C407   1.424       .  A
C406        C413   1.406       .  A
C407        C408   1.419       .  A
C407        C412   1.420       .  A
C408        C409   1.403       .  A
C409        H419   1.083       .  S
C409        C410   1.392       .  A
C410        H420   1.080       .  S
C410        C411   1.406       .  A
C411        C412   1.424       .  A
C411        C418   1.417       .  A
C412        C415   1.421       .  A
C413        H421   1.083       .  S
C413        C414   1.400       .  A
C414        H422   1.083       .  S
C414        C415   1.408       .  A
C415        C416   1.415       .  A
C416        C803   1.490       .  S
C416        C417   1.404       .  A
C417        H424   1.085       .  S
C417        C418   1.401       .  A
C418        C812   1.493       .  S
C425        C840   1.478       .  S
C425        C426   1.400       .  A
C425        C430   1.414       .  A
C426        H445   1.086       .  S
C426        C427   1.397       .  A
C427        C824   1.491       .  S
C427        C428   1.414       .  A
C428        C429   1.428       .  A
C428        C435   1.402       .  A
C429        C430   1.417       .  A
C429        C434   1.421       .  A
C430        C431   1.409       .  A
C431        H441   1.083       .  S
C431        C432   1.401       .  A
C432        H442   1.081       .  S
C432        C433   1.406       .  A
C433        C434   1.430       .  A
C433        C440   1.427       .  A
C434        C437   1.416       .  A
C435        H443   1.082       .  S
C435        C436   1.388       .  A
C436        H444   1.083       .  S
C436        C437   1.405       .  A
C437        C438   1.402       .  A
C438        C799   1.476       .  S
C438        C439   1.393       .  A
C439        H446   1.084       .  S
C439        C440   1.401       .  A
C440        C808   1.509       .  S
O447       Mg449   2.156       .  S
O447       Mg455   2.172       .  S
O447        C482   1.235       .  S
C448        O461   1.235       .  S
C448        O485   1.270       .  A
C448        H487   1.081       .  S
Mg449       O478   2.176       .  S
Mg449       O493   2.281       .  S
Mg449       O460   2.294       .  S
Mg449      O1407   2.295   1_545  S
O450       Mg492   2.186       .  S
O450       Mg475   2.166       .  S
O450        C471   1.235       .  S
O451        C482   1.271       .  A
O451       Mg475   2.306       .  S
C452        O454   1.270       .  A
C452        O466   1.278       .  A
C452        C792   1.475       .  S
O453        C481   1.267       .  A
O453       Mg455   2.285       .  S
O454       Mg486   2.254       .  S
Mg455       O461   2.162       .  S
Mg455       O469   2.281       .  S
Mg455       O457   2.298       .  S
C456        O494   1.274       .  A
C456        O462   1.276       .  A
C456        C796   1.478       .  S
O457        C464   1.273       .  A
H458        C471   1.082       .  S
C459        O473   1.234       .  S
C459        O474   1.268       .  A
C459        H484   1.081       .  S
O460        C483   1.268       .  A
O461       Mg475   2.152       .  S
O462       Mg492   2.311       .  S
C463        O476   1.273       .  A
C463        O468   1.279       .  A
C463        C743   1.467       .  S
C464        O491   1.277       .  A
C464       C2640   1.485       .  S
Mg465       O472   2.157       .  S
Mg465       O473   2.173       .  S
Mg465       O466   2.315       .  S
Mg465       O467   2.298       .  S
Mg465       O494   2.287       .  S
O467        C471   1.269       .  A
O468      Mg2311   2.315   1_455  S
O469        C488   1.273       .  A
O470        C490   1.272       .  A
O470      Mg1404   2.274       .  S
O472       Mg486   2.170       .  S
O472        C483   1.234       .  S
O473       Mg492   2.151       .  S
O474       Mg486   2.292       .  S
Mg475       O491   2.310       .  S
Mg475      O2304   2.297       .  S
O476      Mg2328   2.282   1_455  S
H477        C482   1.081       .  S
O478       Mg486   2.132       .  S
O478        C481   1.234       .  S
H479        C481   1.081   1_565  S
H480        C483   1.082       .  S
O485       Mg492   2.302       .  S
Mg486      O1388   2.295   1_545  S
C488        O493   1.272       .  A
C488       C1705   1.473   1_545  S
O489        C490   1.271       .  A
O489      Mg1367   2.284       .  S
C490        C770   1.462       .  S
Mg492      O2312   2.284       .  S
O495       Mg497   2.141       .  S
O495       Mg503   2.151       .  S
O495        C530   1.235       .  S
C496        O509   1.233       .  S
C496        O533   1.265       .  A
C496        H535   1.082       .  S
Mg497       O526   2.178       .  S
Mg497       O541   2.333       .  S
Mg497       O537   2.262       .  S
Mg497       O508   2.296       .  S
O498       Mg540   2.157       .  S
O498       Mg523   2.126       .  S
O498        C519   1.237       .  S
O499        C530   1.269       .  A
O499       Mg523   2.299       .  S
C500        O502   1.274       .  A
C500        O514   1.271       .  A
C500        C779   1.469       .  S
O501        C529   1.272       .  A
O501       Mg503   2.297       .  S
O502       Mg534   2.282       .  S
Mg503       O509   2.117       .  S
Mg503       O517   2.194       .  S
Mg503       O505   2.257       .  S
C504        O542   1.270       .  A
C504        O510   1.271       .  A
C504        C784   1.467       .  S
O505        C512   1.265       .  A
H506        C519   1.081       .  S
C507        O521   1.235       .  S
C507        O522   1.271       .  A
C507        H532   1.081       .  S
O508        C531   1.266       .  A
O509       Mg523   2.153       .  S
O510       Mg540   2.286       .  S
C511        O524   1.273       .  A
C511        O516   1.275       .  A
C511        C744   1.466       .  S
C512       O2375   1.271       .  A
C512       C2636   1.455       .  S
Mg513       O520   2.156       .  S
Mg513       O521   2.148       .  S
Mg513       O514   2.293       .  S
Mg513       O515   2.296       .  S
Mg513       O542   2.245       .  S
O515        C519   1.270       .  A
O516      Mg2359   2.316   1_455  S
O517        C536   1.260       .  A
O518        C538   1.279       .  A
O518       Mg534   2.340       .  S
O520       Mg534   2.156       .  S
O520        C531   1.232       .  S
O521       Mg540   2.165       .  S
O522       Mg534   2.314       .  S
Mg523      O2352   2.303       .  S
Mg523      O2375   2.257       .  S
O524      Mg2376   2.262   1_455  S
H525        C530   1.082       .  S
O526       Mg534   2.156       .  S
O526        C529   1.239       .  S
H527        C529   1.081       .  S
H528        C531   1.081       .  S
O533       Mg540   2.278       .  S
C536        O541   1.278       .  A
C536        C776   1.472       .  S
O537        C538   1.274       .  A
C538        C732   1.472       .  S
O539       C2348   1.272       .  A
O539      Mg2359   2.260       .  S
Mg540      O2360   2.272       .  S
C543        C843   1.483       .  S
C543        C544   1.397       .  A
C543        C548   1.416       .  A
C544        H563   1.086       .  S
C544        C545   1.396       .  A
C545        C831   1.482       .  S
C545        C546   1.415       .  A
C546        C547   1.420       .  A
C546        C553   1.405       .  A
C547        C548   1.420       .  A
C547        C552   1.418       .  A
C548        C549   1.407       .  A
C549        H559   1.082       .  S
C549        C550   1.400       .  A
C550        H560   1.083       .  S
C550        C551   1.407       .  A
C551        C552   1.420       .  A
C551        C558   1.414       .  A
C552        C555   1.422       .  A
C553        H561   1.081       .  S
C553        C554   1.397       .  A
C554        H562   1.079       .  S
C554        C555   1.407       .  A
C555        C556   1.420       .  A
C556        C775   1.484       .  S
C556        C557   1.396       .  A
C557        H564   1.086       .  S
C557        C558   1.395       .  A
C558        C788   1.480       .  S
C565        C904   1.489       .  S
C565        C566   1.398       .  A
C565        C570   1.420   1_455  A
C566        H585   1.086       .  S
C566        C567   1.397       .  A
C567        C868   1.483       .  S
C567        C568   1.412       .  A
C568        C569   1.423   1_455  A
C568        C575   1.405       .  A
C569        C570   1.424       .  A
C569       C2410   1.422       .  A
C570        C571   1.406       .  A
C571        H581   1.082       .  S
C571       C2408   1.399       .  A
C572        H582   1.082       .  S
C572        C573   1.407       .  A
C572       C2407   1.399       .  A
C573        C574   1.424       .  A
C573        C580   1.422       .  A
C574        C577   1.419       .  A
C574       C2405   1.421       .  A
C575        H583   1.081       .  S
C575       C2412   1.388   1_455  A
C576        H584   1.083       .  S
C576        C577   1.404       .  A
C576       C2411   1.387       .  A
C577        C578   1.405       .  A
C578        C783   1.477       .  S
C578        C579   1.398       .  A
C579        H586   1.085       .  S
C579        C580   1.399       .  A
C580        C795   1.492       .  S
C587        C908   1.491       .  S
C587        C588   1.396       .  A
C587        C592   1.418       .  A
C588        H607   1.086       .  S
C588        C589   1.392       .  A
C589        C860   1.482       .  S
C589        C590   1.409       .  A
C590        C591   1.421       .  A
C590        C597   1.404       .  A
C591        C592   1.424       .  A
C591        C596   1.420       .  A
C592        C593   1.406       .  A
C593        H603   1.082       .  S
C593        C594   1.400       .  A
C594        H604   1.082       .  S
C594        C595   1.407       .  A
C595        C596   1.422       .  A
C595        C602   1.417       .  A
C596        C599   1.423       .  A
C597        H605   1.083       .  S
C597        C598   1.394       .  A
C598        H606   1.083       .  S
C598        C599   1.405       .  A
C599        C600   1.412       .  A
C600        C780   1.489       .  S
C600        C601   1.393       .  A
C601        H608   1.084       .  S
C601        C602   1.398       .  A
C602        C820   1.491       .  S
C609        C871   1.499       .  S
C609        C610   1.400       .  A
C609        C614   1.419       .  A
C610        H629   1.084       .  S
C610        C611   1.401       .  A
C611        C855   1.485       .  S
C611        C612   1.416       .  A
C612        C613   1.419       .  A
C612        C619   1.404       .  A
C613        C614   1.425       .  A
C613       C1536   1.427       .  A
C614        C615   1.403       .  A
C615        H625   1.080       .  S
C615       C1534   1.387       .  A
C616        H626   1.083       .  S
C616        C617   1.404       .  A
C616       C1533   1.399       .  A
C617        C618   1.424       .  A
C617        C624   1.418   1_565  A
C618        C621   1.422   1_565  A
C618       C1531   1.424       .  A
C619        H627   1.083       .  S
C619       C1538   1.399       .  A
C620        H628   1.082       .  S
C620        C621   1.406       .  A
C620       C1537   1.391   1_545  A
C621        C622   1.414       .  A
C622        C791   1.484       .  S
C622        C623   1.398       .  A
C623        H630   1.086       .  S
C623        C624   1.399       .  A
C624        C816   1.489       .  S
O631       Mg639   2.181   1_554  S
O631      Mg2469   2.166   1_455  S
O631        C666   1.232       .  S
C632        O645   1.232       .  S
C632        O669   1.266       .  A
C632        H671   1.081       .  S
Mg633       O662   2.198   1_554  S
Mg633      O2467   2.161       .  S
Mg633       O677   2.311       .  S
Mg633       O673   2.277       .  S
Mg633       O644   2.286       .  S
O634       Mg676   2.194   1_554  S
O634       Mg659   2.180       .  S
O634        C655   1.234       .  S
O635       C1584   1.266       .  A
O635       Mg659   2.289   1_565  S
C636        O638   1.275       .  A
C636       O1568   1.272       .  A
C636       C1172   1.469       .  S
O637       C2501   1.267   1_455  A
O637       Mg639   2.295       .  S
O638       Mg670   2.288       .  S
Mg639      O1563   2.147       .  S
Mg639       O653   2.242   1_556  S
Mg639       O641   2.301   1_556  S
C640        O646   1.276       .  A
C640       O2514   1.270   1_456  A
C640       C2159   1.467       .  S
O641       C1566   1.272       .  A
H642        C655   1.081       .  S
C643        O657   1.233       .  S
C643       O1576   1.267       .  A
C643        H668   1.081       .  S
O644        C667   1.265       .  A
O645       Mg659   2.173   1_556  S
O645      Mg1557   2.143   1_545  S
O646       Mg676   2.317       .  S
C647        O660   1.275       .  A
C647        O652   1.270   1_556  A
C648        O675   1.275   1_565  A
C648       O1559   1.270       .  A
C648       C1145   1.473       .  S
Mg649       O657   2.182   1_554  S
Mg649      O1574   2.153   1_545  S
Mg649       O650   2.302   1_554  S
Mg649       O651   2.295       .  S
Mg649       O678   2.257       .  S
O650       C1554   1.273       .  A
O651       C2491   1.267       .  A
O652       Mg659   2.276       .  S
O653       C2508   1.268   1_455  A
O654        C674   1.272   1_556  A
O654       Mg670   2.291       .  S
C655       O2487   1.268       .  A
O656       Mg670   2.168   1_554  S
O656      Mg1567   2.145       .  S
O656        C667   1.231       .  S
O657      Mg2512   2.160       .  S
O658       C1561   1.267       .  A
O658       Mg670   2.293       .  S
Mg659       O675   2.294       .  S
O660       Mg676   2.275       .  S
H661        C666   1.081       .  S
O662       Mg670   2.176       .  S
O662        C665   1.233       .  S
H663        C665   1.081       .  S
H664        C667   1.081       .  S
C665       O2473   1.267       .  A
C666       O1553   1.267       .  A
O669       Mg676   2.289       .  S
C672        O677   1.276       .  A
C672       O2489   1.266   1_554  A
C672       C2186   1.458       .  S
O673        C674   1.275       .  A
Mg676      O2493   2.159   1_455  S
O678       C2476   1.270   1_554  A
O679       Mg681   2.175       .  S
O679       Mg687   2.149       .  S
O679        C714   1.236       .  S
C680        O693   1.235       .  S
C680        O717   1.271       .  A
C680        H719   1.081       .  S
Mg681       O710   2.138       .  S
Mg681       O725   2.316       .  S
Mg681       O721   2.288       .  S
Mg681       O692   2.321       .  S
O682       Mg724   2.143       .  S
O682       Mg707   2.154       .  S
O682        C703   1.235       .  S
O683        C714   1.273       .  A
O683       Mg707   2.319       .  S
C684        O686   1.264       .  A
C684        O698   1.273       .  A
O685        C713   1.271       .  A
O685       Mg687   2.314       .  S
O686       Mg718   2.240       .  S
Mg687       O693   2.165       .  S
Mg687       O701   2.285       .  S
Mg687       O689   2.325       .  S
C688        O726   1.272       .  A
C688        O694   1.268       .  A
O689        C696   1.276       .  A
H690        C703   1.081       .  S
C691        O705   1.236       .  S
C691        O706   1.272       .  A
C691        H716   1.081       .  S
O692        C715   1.272       .  A
O693       Mg707   2.146       .  S
O694       Mg724   2.293       .  S
C695        O708   1.265       .  A
C695        O700   1.270       .  A
C696        O723   1.265       .  A
Mg697       O704   2.167       .  S
Mg697       O705   2.135       .  S
Mg697       O698   2.305       .  S
Mg697       O699   2.312       .  S
Mg697       O726   2.289       .  S
O699        C703   1.271       .  A
O700       Mg707   2.301       .  S
O701        C720   1.273       .  A
O702        C722   1.269       .  A
O702       Mg718   2.299       .  S
O704       Mg718   2.142       .  S
O704        C715   1.235       .  S
O705       Mg724   2.152       .  S
O706       Mg718   2.315       .  S
Mg707       O723   2.247       .  S
O708       Mg724   2.245       .  S
H709        C714   1.081       .  S
O710       Mg718   2.163       .  S
O710        C713   1.234       .  S
H711        C713   1.081       .  S
H712        C715   1.081       .  S
O717       Mg724   2.311       .  S
C720        O725   1.273       .  A
O721        C722   1.271       .  A
O727       Mg729   2.149       .  S
O727       Mg735   2.136       .  S
O727        C762   1.234       .  S
C728        O741   1.235       .  S
C728        O765   1.270       .  A
C728        H767   1.081       .  S
Mg729       O758   2.174       .  S
Mg729       O773   2.272       .  S
Mg729       O769   2.254       .  S
Mg729       O740   2.300       .  S
O730       Mg772   2.171       .  S
O730       Mg755   2.152       .  S
O730        C751   1.237       .  S
O731        C762   1.270       .  A
O731       Mg755   2.307       .  S
C732        O734   1.272       .  A
C732        O746   1.276       .  A
O733        C761   1.273       .  A
O733       Mg735   2.312       .  S
O734       Mg766   2.281       .  S
Mg735       O741   2.168       .  S
Mg735       O749   2.305       .  S
Mg735       O737   2.330       .  S
C736        O774   1.273       .  A
C736        O742   1.269       .  A
O737        C744   1.277       .  A
H738        C751   1.082       .  S
C739        O753   1.234       .  S
C739        O754   1.271       .  A
C739        H764   1.081       .  S
O740        C763   1.270       .  A
O741       Mg755   2.153       .  S
O742       Mg772   2.286       .  S
C743        O756   1.269       .  A
C743        O748   1.272       .  A
C744        O771   1.270       .  A
Mg745       O752   2.168       .  S
Mg745       O753   2.139       .  S
Mg745       O746   2.333       .  S
Mg745       O747   2.311       .  S
Mg745       O774   2.286       .  S
O747        C751   1.272       .  A
O748       Mg755   2.291       .  S
O749        C768   1.275       .  A
O750        C770   1.275       .  A
O750       Mg766   2.306       .  S
O752       Mg766   2.151       .  S
O752        C763   1.235       .  S
O753       Mg772   2.163       .  S
O754       Mg766   2.316       .  S
Mg755       O771   2.264       .  S
O756       Mg772   2.282       .  S
H757        C762   1.081       .  S
O758       Mg766   2.153       .  S
O758        C761   1.237       .  S
H759        C761   1.082       .  S
H760        C763   1.081       .  S
O765       Mg772   2.302       .  S
C768        O773   1.266       .  A
O769        C770   1.265       .  A
C775        C776   1.335       .  D
C775        H777   1.087       .  S
C776        H778   1.086       .  S
C779        C780   1.346       .  D
C779        H781   1.086       .  S
C780        H782   1.087       .  S
C783        C784   1.340       .  D
C783        H785   1.087       .  S
C784        H786   1.088       .  S
C787       C1406   1.474       .  S
C787        C788   1.352       .  D
C787       H1707   1.086       .  S
C788        H790   1.087       .  S
H789       C1705   1.087       .  S
C791        C792   1.343       .  D
C791        H793   1.087       .  S
C792        H794   1.087   1_545  S
C795        C796   1.351       .  D
C795        H797   1.086       .  S
C796        H798   1.087       .  S
C799        C800   1.334   1_455  D
C799        H801   1.087       .  S
C800       C2348   1.457       .  S
C800       H2638   1.087       .  S
H802       C2636   1.087       .  S
C803        C804   1.342       .  D
C803        H805   1.086       .  S
C804       C2300   1.482   1_455  S
C804       H2642   1.088   1_455  S
H806       C2640   1.088       .  S
C807       C1278   1.479       .  S
C807        C808   1.356       .  D
C807       H1727   1.087       .  S
C808        H810   1.085       .  S
H809       C1725   1.088       .  S
C811        C812   1.344       .  D
C811        H813   1.087       .  S
C812        H814   1.088       .  S
C815        C816   1.347       .  D
C815        H817   1.087       .  S
C816        H818   1.086   1_545  S
C819        C820   1.350       .  D
C819        H821   1.088       .  S
C820        H822   1.085       .  S
C823        C824   1.351       .  D
C823        H825   1.087       .  S
C824        H826   1.087       .  S
C827        C828   1.347       .  D
C827        H829   1.087       .  S
C828        H830   1.086       .  S
C831        C832   1.338       .  D
C831        H833   1.087       .  S
C832        H834   1.087       .  S
C835        C836   1.339       .  D
C835        H837   1.086       .  S
C836        H838   1.089       .  S
C839        C840   1.342       .  D
C839        H841   1.088       .  S
C840        H842   1.086       .  S
C843        C844   1.351       .  D
C843        H845   1.086       .  S
C844        H846   1.087       .  S
C847        C848   1.349       .  D
C847        H849   1.086       .  S
C848        H850   1.088       .  S
C851        C852   1.339       .  D
C851        H853   1.086       .  S
C852        H854   1.089       .  S
C855        C856   1.345       .  D
C855        H857   1.087       .  S
C856        H858   1.088       .  S
C859        C860   1.349       .  D
C859        H861   1.087       .  S
C860        H862   1.086       .  S
C863        C864   1.345       .  D
C863        H865   1.087       .  S
C864        H866   1.087       .  S
C867        C868   1.348       .  D
C867        H869   1.087       .  S
C868        H870   1.087       .  S
C871        C872   1.348       .  D
C871        H873   1.086       .  S
C872        H874   1.086       .  S
C875       C1946   1.467       .  S
C875        C876   1.351       .  D
C875       H2713   1.084       .  S
C876        H878   1.086       .  S
H877       C2711   1.085       .  S
C879        C880   1.349       .  D
C879        H881   1.087       .  S
C880        H882   1.087       .  S
C883        C884   1.347       .  D
C883        H885   1.087       .  S
C884        H886   1.087       .  S
C887        C888   1.355       .  D
C887        H889   1.085   1_545  S
C888       C1076   1.473   1_545  S
C888        H890   1.088       .  S
C891        C892   1.337       .  D
C891        H893   1.087       .  S
C892        H894   1.088       .  S
C895        C896   1.352       .  D
C895        H897   1.086       .  S
C896        H898   1.086       .  S
C899       C1052   1.480   1_545  S
C899        C900   1.340       .  D
C899       H1819   1.088       .  S
C900        H902   1.086   1_545  S
H901       C1817   1.087       .  S
C903        C904   1.346       .  D
C903        H905   1.087       .  S
C904        H906   1.087   1_455  S
C907        C908   1.351       .  D
C907        H909   1.086       .  S
C908        H910   1.086       .  S
C911       C1842   1.467       .  S
C911        C912   1.353       .  D
C911        H913   1.088       .  S
C912        H914   1.085       .  S
C915        C916   1.341       .  D
C915        H917   1.087       .  S
C916        H918   1.086       .  S
O919       Mg921   2.140       .  S
O919       Mg927   2.164       .  S
O919        C954   1.235       .  S
C920        O933   1.235       .  S
C920        O957   1.270       .  A
C920        H959   1.081       .  S
Mg921       O950   2.159       .  S
Mg921       O965   2.316       .  S
Mg921      O2797   2.271   1_455  S
Mg921       O932   2.292       .  S
O922       Mg964   2.160       .  S
O922       Mg947   2.150       .  S
O922        C943   1.234       .  S
O923        C954   1.268       .  A
O923       Mg947   2.287       .  S
C924       O2762   1.268   1_455  A
C924        O938   1.272       .  A
C924       C3665   1.468   1_455  S
O925        C953   1.269       .  A
O925       Mg927   2.296       .  S
O926       C2760   1.268       .  A
O926      Mg2794   2.241       .  S
Mg927       O933   2.163       .  S
Mg927       O941   2.273       .  S
Mg927       O929   2.311       .  S
C928        O966   1.268       .  A
C928        O934   1.283       .  A
C928       C1834   1.477       .  S
O929        C936   1.274       .  A
H930        C943   1.081       .  S
C931        O945   1.234       .  S
C931        O946   1.267       .  A
C931        H956   1.081       .  S
O932        C955   1.269       .  A
O933       Mg947   2.173       .  S
O934       Mg964   2.345       .  S
C935        O948   1.277       .  A
C935        O940   1.273       .  A
C935       C1614   1.470       .  S
C936        O963   1.270       .  A
C936       C1825   1.467       .  S
Mg937       O944   2.142       .  S
Mg937       O945   2.172       .  S
Mg937       O938   2.306       .  S
Mg937       O939   2.294       .  S
Mg937       O966   2.226       .  S
O939        C943   1.268       .  A
O940       Mg947   2.301       .  S
O941        C960   1.273       .  A
O942        C962   1.269       .  A
O942      Mg2794   2.279       .  S
O944       Mg958   2.169       .  S
O944        C955   1.235       .  S
O945       Mg964   2.145       .  S
O946       Mg958   2.287       .  S
Mg947       O963   2.241       .  S
O948       Mg964   2.290       .  S
H949        C954   1.082       .  S
O950       Mg958   2.143       .  S
O950        C953   1.234       .  S
H951        C953   1.081   1_655  S
H952        C955   1.081       .  S
O957       Mg964   2.300       .  S
Mg958      O2762   2.237   1_455  S
Mg958      O2778   2.272   1_455  S
C960        O965   1.279       .  A
C960       C1821   1.482       .  S
O961        C962   1.274       .  A
O961      Mg2757   2.276       .  S
C962       C1602   1.462       .  S
C967       C1833   1.487       .  S
C967        C968   1.401       .  A
C967        C972   1.420       .  A
C968        H987   1.086       .  S
C968        C969   1.398       .  A
C969       C1818   1.482       .  S
C969        C970   1.409       .  A
C970        C971   1.419       .  A
C970        C977   1.405       .  A
C971        C972   1.421       .  A
C971        C976   1.415       .  A
C972        C973   1.409       .  A
C973        H983   1.079       .  S
C973        C974   1.398       .  A
C974        H984   1.081       .  S
C974        C975   1.404       .  A
C975        C976   1.418       .  A
C975        C982   1.414       .  A
C976        C979   1.418       .  A
C977        H985   1.082       .  S
C977        C978   1.394       .  A
C978        H986   1.082       .  S
C978        C979   1.406       .  A
C979        C980   1.411       .  A
C980       C1813   1.475       .  S
C980        C981   1.396       .  A
C981        H988   1.086       .  S
C981        C982   1.397       .  A
C982       C1809   1.481       .  S
C989       C1830   1.489       .  S
C989        C990   1.391       .  A
C989        C994   1.415       .  A
C990       H1009   1.086       .  S
C990        C991   1.390       .  A
C991       C1805   1.485       .  S
C991        C992   1.412       .  A
C992        C993   1.423       .  A
C992        C999   1.404       .  A
C993        C994   1.425       .  A
C993        C998   1.420       .  A
C994        C995   1.404       .  A
C995       H1005   1.082       .  S
C995        C996   1.395       .  A
C996       H1006   1.082       .  S
C996        C997   1.406       .  A
C997        C998   1.422       .  A
C997       C1004   1.413       .  A
C998       C1001   1.424       .  A
C999       H1007   1.083       .  S
C999       C1000   1.397       .  A
C1000      H1008   1.082       .  S
C1000      C1001   1.407       .  A
C1001      C1002   1.417       .  A
C1002      C1802   1.487       .  S
C1002      C1003   1.399       .  A
C1003      H1010   1.086       .  S
C1003      C1004   1.399       .  A
C1004      C1797   1.484       .  S
O1011     Mg1013   2.133       .  S
O1011     Mg1019   2.130       .  S
O1011      C1046   1.231       .  S
C1012      O1025   1.238       .  S
C1012      O1049   1.272       .  A
C1012      H1051   1.082       .  S
Mg1013     O1042   2.146       .  S
Mg1013     O1057   2.270       .  S
Mg1013     O1024   2.299       .  S
O1014     Mg1056   2.153       .  S
O1014     Mg1039   2.157       .  S
O1014      C1035   1.237       .  S
O1015      C1046   1.265       .  A
O1015     Mg1039   2.291       .  S
C1016      O1018   1.272       .  A
C1016      O1030   1.280       .  A
C1016      C1790   1.479       .  S
O1017      C1045   1.273       .  A
O1017     Mg1019   2.318       .  S
O1018     Mg1050   2.253       .  S
Mg1019     O1025   2.181       .  S
Mg1019     O1033   2.336       .  S
Mg1019     O1021   2.313       .  S
C1020      O1058   1.273       .  A
C1020      O1026   1.272       .  A
C1020      C1785   1.480       .  S
O1021      C1028   1.276   1_455  A
H1022      C1035   1.081       .  S
C1023      O1037   1.232       .  S
C1023      O1038   1.266       .  A
C1023      H1048   1.081       .  S
O1024      C1047   1.273       .  A
O1025     Mg1039   2.193       .  S
O1026     Mg1056   2.281       .  S
C1027      O1040   1.269       .  A
C1027      O1032   1.275       .  A
C1027      C1640   1.471       .  S
C1028      O2891   1.274       .  A
C1028      C3629   1.468       .  S
Mg1029     O1036   2.161       .  S
Mg1029     O1037   2.150       .  S
Mg1029     O1030   2.343       .  S
Mg1029     O1031   2.317       .  S
Mg1029     O1058   2.293       .  S
O1031      C1035   1.273       .  A
O1032     Mg2875   2.312       .  S
O1033      C1052   1.276       .  A
O1034      C1054   1.271       .  A
O1036     Mg1050   2.184       .  S
O1036      C1047   1.239       .  S
O1037     Mg1056   2.155       .  S
O1038     Mg1050   2.292       .  S
Mg1039     O2868   2.311   1_455  S
Mg1039     O2891   2.275   1_455  S
O1040     Mg2892   2.273       .  S
H1041      C1046   1.082       .  S
O1042     Mg1050   2.134       .  S
O1042      C1045   1.237       .  S
H1043      C1045   1.081       .  S
H1044      C1047   1.081       .  S
O1049     Mg1056   2.304       .  S
C1052      O1057   1.265       .  A
O1053      C1054   1.266       .  A
C1054      C1613   1.458       .  S
O1055      C2864   1.272       .  A
O1055     Mg2875   2.246       .  S
Mg1056     O2876   2.279   1_455  S
O1059     Mg1061   2.145       .  S
O1059     Mg1067   2.142       .  S
O1059      C1094   1.231       .  S
C1060      O1073   1.238       .  S
C1060      O1097   1.273       .  A
C1060      H1099   1.081       .  S
Mg1061     O1090   2.146       .  S
Mg1061     O1105   2.294       .  S
Mg1061     O1101   2.257       .  S
Mg1061     O1072   2.305       .  S
O1062     Mg1104   2.150       .  S
O1062     Mg1087   2.152       .  S
O1062      C1083   1.237       .  S
O1063      C1094   1.265       .  A
O1063     Mg1087   2.291       .  S
C1064      O1066   1.273       .  A
C1064      O1078   1.274       .  A
C1064      C1777   1.473       .  S
O1065      C1093   1.272       .  A
O1065     Mg1067   2.313       .  S
O1066     Mg1098   2.267       .  S
Mg1067     O1073   2.179       .  S
Mg1067     O1081   2.287       .  S
Mg1067     O1069   2.305       .  S
C1068      O1106   1.271       .  A
C1068      O1074   1.269       .  A
C1068      C1774   1.479       .  S
O1069      C1076   1.273       .  A
H1070      C1083   1.081       .  S
C1071      O1085   1.232       .  S
C1071      O1086   1.266       .  A
C1071      H1096   1.082       .  S
O1072      C1095   1.273       .  A
O1073     Mg1087   2.189       .  S
O1074     Mg1104   2.295       .  S
C1075      O1088   1.270       .  A
C1075      O1080   1.274       .  A
C1075      C1606   1.467       .  S
Mg1077     O1084   2.168       .  S
Mg1077     O1085   2.147       .  S
Mg1077     O1078   2.309       .  S
Mg1077     O1079   2.318       .  S
Mg1077     O1106   2.282       .  S
O1079      C1083   1.273       .  A
O1081      C1100   1.272       .  A
O1082      C1102   1.274       .  A
O1082     Mg1098   2.299       .  S
O1084     Mg1098   2.183       .  S
O1084      C1095   1.238       .  S
O1085     Mg1104   2.153       .  S
O1086     Mg1098   2.294       .  S
H1089      C1094   1.081       .  S
O1090     Mg1098   2.143       .  S
O1090      C1093   1.236       .  S
H1091      C1093   1.081       .  S
H1092      C1095   1.081       .  S
O1097     Mg1104   2.311       .  S
C1100      O1105   1.269       .  A
C1100      C1781   1.477       .  S
O1101      C1102   1.268       .  A
C1102      C1638   1.460       .  S
C1107      C1794   1.500       .  S
C1107      C1108   1.406       .  A
C1107      C1112   1.425       .  A
C1108      H1127   1.085       .  S
C1108      C1109   1.394       .  A
C1109      C1782   1.487       .  S
C1109      C1110   1.410       .  A
C1110      C1111   1.425       .  A
C1110      C1117   1.403       .  A
C1111      C1112   1.422       .  A
C1111      C1116   1.423       .  A
C1112      C1113   1.411       .  A
C1113      H1123   1.081       .  S
C1113      C1114   1.404       .  A
C1114      H1124   1.083       .  S
C1114      C1115   1.405       .  A
C1115      C1116   1.426       .  A
C1115      C1122   1.428       .  A
C1116      C1119   1.417       .  A
C1117      H1125   1.082       .  S
C1117      C1118   1.387       .  A
C1118      H1126   1.083       .  S
C1118      C1119   1.404       .  A
C1119      C1120   1.404       .  A
C1120      C1769   1.467       .  S
C1120      C1121   1.388       .  A
C1121      H1128   1.085       .  S
C1121      C1122   1.399       .  A
C1122      C1765   1.500       .  S
O1129     Mg1131   2.152       .  S
O1129      C1164   1.236       .  S
C1130      O1143   1.236       .  S
C1130      O1167   1.271   1_556  A
C1130      H1169   1.081       .  S
Mg1131     O1171   2.275       .  S
Mg1131     O1142   2.306       .  S
O1132     Mg1157   2.133   1_554  S
O1132      C1153   1.235       .  S
O1133      C1164   1.270       .  A
O1133     Mg1157   2.301       .  S
C1134      O1136   1.276       .  A
C1134      O1148   1.276       .  A
C1134      C1801   1.484       .  S
O1135      C1163   1.270       .  A
O1135     Mg1137   2.304       .  S
Mg1137     O1143   2.165       .  S
Mg1137     O1151   2.303       .  S
Mg1137     O1139   2.346       .  S
C1138      O1176   1.273       .  A
C1138      O1144   1.268       .  A
C1138      C1814   1.472       .  S
O1139      C1146   1.281       .  A
H1140      C1153   1.081   1_556  S
C1141      O1155   1.235   1_565  S
C1141      O1156   1.269       .  A
C1141      H1166   1.081       .  S
O1142      C1165   1.271   1_556  A
C1145      O1158   1.267   1_565  A
C1145      O1150   1.279   1_554  A
C1146      O1173   1.273       .  A
C1146      C1757   1.487       .  S
Mg1147     O1154   2.161       .  S
Mg1147     O1148   2.315       .  S
Mg1147     O1149   2.291       .  S
Mg1147     O1176   2.296       .  S
O1149      C1153   1.268       .  A
O1151      C1170   1.275       .  A
O1152      C1172   1.279   1_554  A
O1154      C1165   1.235       .  S
O1155     Mg1174   2.150       .  S
O1156     Mg1168   2.298   1_565  S
O1158     Mg1174   2.270       .  S
H1159      C1164   1.081       .  S
O1160     Mg1168   2.169   1_566  S
O1160      C1163   1.235       .  S
H1161      C1163   1.081   1_554  S
H1162      C1165   1.080       .  S
O1167     Mg1174   2.305   1_565  S
C1170      O1175   1.271       .  A
C1170      C1762   1.477       .  S
O1171      C1172   1.269       .  A
O1177     Mg1179   2.139       .  S
O1177     Mg1185   2.146       .  S
O1177      C1212   1.236       .  S
C1178      O1191   1.233       .  S
C1178      O1215   1.268   1_556  A
C1178      H1217   1.081       .  S
Mg1179     O1208   2.164       .  S
Mg1179     O1223   2.248       .  S
Mg1179     O1219   2.238       .  S
Mg1179     O1190   2.301       .  S
O1180     Mg1222   2.162       .  S
O1180     Mg1205   2.139   1_554  S
O1180      C1201   1.237       .  S
O1181      C1212   1.272       .  A
O1181     Mg1205   2.315       .  S
C1182      O1184   1.275       .  A
C1182      O1196   1.264       .  A
C1182      C1810   1.478       .  S
O1183      C1211   1.272       .  A
O1183     Mg1185   2.310       .  S
O1184     Mg1216   2.301       .  S
Mg1185     O1191   2.159       .  S
Mg1185     O1199   2.298       .  S
Mg1185     O1187   2.288       .  S
C1186      O1224   1.267       .  A
C1186      O1192   1.265       .  A
C1186      C1770   1.459       .  S
O1187      C1194   1.270       .  A
H1188      C1201   1.081       .  S
C1189      O1203   1.236       .  S
C1189      O1204   1.273       .  A
C1189      H1214   1.081       .  S
O1190      C1213   1.268   1_556  A
O1191     Mg1205   2.138       .  S
O1192     Mg1222   2.251       .  S
C1193      O1206   1.266       .  A
C1193      O1198   1.278   1_554  A
C1193      C1592   1.465       .  S
C1194      O1221   1.271       .  A
C1194      C1750   1.467       .  S
Mg1195     O1202   2.145       .  S
Mg1195     O1203   2.148       .  S
Mg1195     O1196   2.272       .  S
Mg1195     O1197   2.300       .  S
Mg1195     O1224   2.244       .  S
O1197      C1201   1.271       .  A
O1198     Mg1205   2.335       .  S
O1199      C1218   1.271       .  A
O1200      C1220   1.278   1_554  A
O1200     Mg1216   2.330       .  S
O1202     Mg1216   2.129       .  S
O1202      C1213   1.234       .  S
O1203     Mg1222   2.136       .  S
O1204     Mg1216   2.320       .  S
Mg1205     O1221   2.247       .  S
O1206     Mg1222   2.248       .  S
H1207      C1212   1.082       .  S
O1208     Mg1216   2.156   1_556  S
O1208      C1211   1.237       .  S
H1209      C1211   1.081       .  S
H1210      C1213   1.081       .  S
O1215     Mg1222   2.303       .  S
C1218      O1223   1.265       .  A
C1218      C1754   1.467       .  S
O1219      C1220   1.265       .  A
C1220      C1565   1.460       .  S
O1225     Mg1227   2.171       .  S
O1225     Mg3069   2.178   1_455  S
O1225      C1260   1.237       .  S
C1226      O1239   1.234       .  S
C1226      O1263   1.270   1_554  A
C1226      H1265   1.082       .  S
Mg1227     O3092   2.180   1_455  S
Mg1227     O3107   2.317   1_455  S
Mg1227     O1267   2.308   1_455  S
Mg1227     O1238   2.296       .  S
O1228     Mg3106   2.170       .  S
O1228     Mg1253   2.162   1_556  S
O1228      C1249   1.234       .  S
O1229      C1260   1.272       .  A
O1229     Mg1253   2.308       .  S
C1230      O1232   1.269   1_455  A
C1230      O1244   1.271       .  A
C1230      C1741   1.476       .  S
O1231      C1259   1.269       .  A
O1231     Mg1233   2.297       .  S
O1232     Mg3100   2.270       .  S
Mg1233     O3061   2.169       .  S
Mg1233     O1239   2.165       .  S
Mg1233     O1247   2.265       .  S
Mg1233     O1235   2.317       .  S
C1234      O1272   1.267       .  A
C1234      O1240   1.281       .  A
C1234      C1745   1.476       .  S
O1235      C1242   1.274       .  A
H1236      C1249   1.081   1_554  S
C1237      O1251   1.237       .  S
C1237      O1252   1.272       .  A
C1237      H1262   1.080       .  S
O1238      C1261   1.267   1_554  A
O1239     Mg3089   2.143       .  S
O1240     Mg3106   2.356       .  S
C1241      O1254   1.279       .  A
C1241      O1246   1.271   1_556  A
C1241      C3394   1.469       .  S
C1242      O1269   1.269       .  A
C1242      C1798   1.483       .  S
Mg1243     O1250   2.141       .  S
Mg1243     O3087   2.163   1_455  S
Mg1243     O1244   2.277       .  S
Mg1243     O1245   2.293       .  S
Mg1243     O1272   2.241       .  S
O1245      C1249   1.268       .  A
O1246     Mg3089   2.292       .  S
O1247      C1266   1.271       .  A
O1248      C1268   1.269   1_556  A
O1248     Mg3100   2.272       .  S
O1250     Mg3100   2.145   1_455  S
O1250      C1261   1.233       .  S
O1251     Mg3079   2.167       .  S
O1251     Mg1270   2.162       .  S
O1252     Mg1264   2.308       .  S
Mg1253     O3075   2.145   1_455  S
Mg1253     O3082   2.275       .  S
Mg1253     O3105   2.248       .  S
O1254     Mg1270   2.313       .  S
H1255      C1260   1.081       .  S
O1256     Mg3063   2.183       .  S
O1256     Mg1264   2.164   1_554  S
O1256      C1259   1.234       .  S
H1257      C1259   1.081       .  S
H1258      C1261   1.081       .  S
O1263     Mg1270   2.308       .  S
Mg1264     O3086   2.144       .  S
Mg1264     O3068   2.274       .  S
Mg1264     O3084   2.277       .  S
C1266      O1271   1.279       .  A
C1266      C1766   1.480       .  S
O1267      C1268   1.278       .  A
C1268      C3426   1.464       .  S
O1269     Mg3089   2.252       .  S
Mg1270     O3064   2.175       .  S
Mg1270     O3076   2.353       .  S
O1271     Mg3063   2.337       .  S
O1273     Mg1275   2.139       .  S
O1273     Mg1281   2.136       .  S
O1273      C1308   1.237       .  S
C1274      O1287   1.236       .  S
C1274      O1311   1.271       .  A
C1274      H1313   1.082       .  S
Mg1275     O1304   2.169       .  S
Mg1275     O1319   2.270       .  S
Mg1275     O1286   2.296       .  S
O1276     Mg1318   2.168       .  S
O1276     Mg1301   2.187       .  S
O1276      C1297   1.239       .  S
O1277      C1308   1.276       .  A
O1277     Mg1301   2.342       .  S
C1278      O1292   1.282       .  A
O1279      C1307   1.273       .  A
O1279     Mg1281   2.310       .  S
Mg1281     O1287   2.173       .  S
Mg1281     O1295   2.308       .  S
Mg1281     O1283   2.252       .  S
C1282      O1320   1.277       .  A
C1282      O1288   1.269       .  A
C1282      C1729   1.482       .  S
O1283      C1290   1.260       .  A
H1284      C1297   1.081       .  S
C1285      O1299   1.230       .  S
C1285      O1300   1.263       .  A
C1285      H1310   1.081       .  S
O1286      C1309   1.269       .  A
O1287     Mg1301   2.165       .  S
O1288     Mg1318   2.284       .  S
C1289      O1302   1.264       .  A
C1289      O1294   1.280       .  A
C1289      C1654   1.466       .  S
C1290      O1317   1.274       .  A
C1290      C1737   1.483       .  S
Mg1291     O1298   2.173       .  S
Mg1291     O1299   2.135       .  S
Mg1291     O1292   2.370       .  S
Mg1291     O1293   2.338       .  S
Mg1291     O1320   2.322       .  S
O1293      C1297   1.277       .  A
O1294     Mg1301   2.346       .  S
O1295      C1314   1.271       .  A
O1296      C1316   1.273       .  A
O1298     Mg1312   2.195       .  S
O1298      C1309   1.235       .  S
O1299     Mg1318   2.141       .  S
O1300     Mg1312   2.279       .  S
Mg1301     O1317   2.387       .  S
O1302     Mg1318   2.224       .  S
H1303      C1308   1.081       .  S
O1304     Mg1312   2.145       .  S
O1304      C1307   1.238       .  S
H1305      C1307   1.081       .  S
H1306      C1309   1.081       .  S
O1311     Mg1318   2.302       .  S
C1314      O1319   1.268       .  A
C1314      C1733   1.463       .  S
O1315      C1316   1.274       .  A
C1316      C1686   1.473       .  S
C1321      C1753   1.486       .  S
C1321      C1322   1.392       .  A
C1321      C1326   1.410       .  A
C1322      H1341   1.084       .  S
C1322      C1323   1.397       .  A
C1323      C1746   1.501       .  S
C1323      C1324   1.426       .  A
C1324      C1325   1.427       .  A
C1324      C1331   1.408       .  A
C1325      C1326   1.424       .  A
C1325      C1330   1.424       .  A
C1326      C1327   1.404       .  A
C1327      H1337   1.083       .  S
C1327      C1328   1.392       .  A
C1328      H1338   1.083       .  S
C1328      C1329   1.405       .  A
C1329      C1330   1.422       .  A
C1329      C1336   1.412       .  A
C1330      C1333   1.423       .  A
C1331      H1339   1.082       .  S
C1331      C1332   1.404       .  A
C1332      H1340   1.083       .  S
C1332      C1333   1.408       .  A
C1333      C1334   1.423       .  A
C1334      C1721   1.494       .  S
C1334      C1335   1.404       .  A
C1335      H1342   1.085       .  S
C1335      C1336   1.401       .  A
C1336      C1730   1.489       .  S
C1343      C1758   1.488       .  S
C1343      C1344   1.400       .  A
C1343      C1348   1.419       .  A
C1344      H1363   1.085       .  S
C1344      C1345   1.399       .  A
C1345      C1742   1.483       .  S
C1345      C1346   1.411       .  A
C1346      C1347   1.423       .  A
C1346      C1353   1.406       .  A
C1347      C1348   1.423       .  A
C1347      C1352   1.421       .  A
C1348      C1349   1.407       .  A
C1349      H1359   1.083       .  S
C1349      C1350   1.401       .  A
C1350      H1360   1.082       .  S
C1350      C1351   1.406       .  A
C1351      C1352   1.424       .  A
C1351      C1358   1.421       .  A
C1352      C1355   1.422       .  A
C1353      H1361   1.082       .  S
C1353      C1354   1.389       .  A
C1354      H1362   1.083   1_455  S
C1354      C1355   1.402       .  A
C1355      C1356   1.407       .  A
C1356      C1717   1.481       .  S
C1356      C1357   1.390       .  A
C1357      H1364   1.084       .  S
C1357      C1358   1.395       .  A
C1358      C1726   1.494       .  S
O1365     Mg1367   2.153       .  S
O1365     Mg1373   2.175       .  S
O1365      C1400   1.234       .  S
C1366      O1379   1.237       .  S
C1366      O1403   1.272       .  A
C1366      H1405   1.081       .  S
Mg1367     O1396   2.183       .  S
Mg1367     O1411   2.253       .  S
Mg1367     O1378   2.288       .  S
O1368     Mg1410   2.182       .  S
O1368     Mg1393   2.174       .  S
O1368      C1389   1.234       .  S
O1369      C1400   1.269       .  A
O1369     Mg1393   2.301       .  S
C1370      O1372   1.272       .  A
C1370      O1384   1.279       .  A
C1370      C1710   1.485       .  S
O1371      C1399   1.268       .  A
O1371     Mg1373   2.293       .  S
O1372     Mg1404   2.276       .  S
Mg1373     O1379   2.168       .  S
Mg1373     O1387   2.304       .  S
Mg1373     O1375   2.309       .  S
C1374      O1412   1.273       .  A
C1374      O1380   1.277       .  A
C1374      C1714   1.474       .  S
O1375      C1382   1.275       .  A
H1376      C1389   1.082       .  S
C1377      O1391   1.233       .  S
C1377      O1392   1.266       .  A
C1377      H1402   1.082       .  S
O1378      C1401   1.267       .  A
O1379     Mg1393   2.160       .  S
O1380     Mg1410   2.310       .  S
C1381      O1394   1.274       .  A
C1381      O1386   1.279       .  A
C1381      C1661   1.472       .  S
C1382      O1409   1.279       .  A
C1382      C3558   1.491       .  S
Mg1383     O1390   2.144       .  S
Mg1383     O1391   2.184       .  S
Mg1383     O1384   2.329       .  S
Mg1383     O1385   2.299       .  S
Mg1383     O1412   2.276       .  S
O1385      C1389   1.269       .  A
O1386     Mg3229   2.314   1_455  S
O1387      C1406   1.274       .  A
O1388      C1408   1.274       .  A
O1390     Mg1404   2.172       .  S
O1390      C1401   1.233       .  S
O1391     Mg1410   2.155       .  S
O1392     Mg1404   2.287       .  S
Mg1393     O3222   2.297       .  S
Mg1393     O1409   2.328       .  S
O1394     Mg3246   2.297   1_455  S
H1395      C1400   1.081       .  S
O1396     Mg1404   2.150       .  S
O1396      C1399   1.235       .  S
H1397      C1399   1.081       .  S
H1398      C1401   1.082       .  S
O1403     Mg1410   2.307       .  S
C1406      O1411   1.269       .  A
O1407      C1408   1.273       .  A
C1408      C1688   1.468       .  S
Mg1410     O3230   2.286       .  S
O1413     Mg1415   2.148       .  S
O1413     Mg1421   2.140       .  S
O1413      C1448   1.233       .  S
C1414      O1427   1.233       .  S
C1414      O1451   1.267       .  A
C1414      H1453   1.081       .  S
Mg1415     O1444   2.157       .  S
Mg1415     O1459   2.288       .  S
Mg1415     O1455   2.280       .  S
Mg1415     O1426   2.281       .  S
O1416     Mg1458   2.160       .  S
O1416     Mg1441   2.146       .  S
O1416      C1437   1.238       .  S
O1417      C1448   1.268       .  A
O1417     Mg1441   2.300       .  S
C1418      O1420   1.268       .  A
C1418      O1432   1.276       .  A
C1418      C1697   1.468       .  S
O1419      C1447   1.272       .  A
O1419     Mg1421   2.294       .  S
O1420     Mg1452   2.218       .  S
Mg1421     O1427   2.151       .  S
Mg1421     O1435   2.230       .  S
Mg1421     O1423   2.274       .  S
C1422      O1460   1.269       .  A
C1422      O1428   1.270       .  A
C1422      C1702   1.466       .  S
O1423      C1430   1.269       .  A
H1424      C1437   1.082       .  S
C1425      O1439   1.236       .  S
C1425      O1440   1.272       .  A
C1425      H1450   1.081       .  S
O1426      C1449   1.266       .  A
O1427     Mg1441   2.170       .  S
O1428     Mg1458   2.284       .  S
C1429      O1442   1.272   1_455  A
C1429      O1434   1.279       .  A
C1429      C1662   1.483       .  S
C1430      O3293   1.276       .  A
C1430      C3554   1.461       .  S
Mg1431     O1438   2.134       .  S
Mg1431     O1439   2.156       .  S
Mg1431     O1432   2.334       .  S
Mg1431     O1433   2.310       .  S
Mg1431     O1460   2.238       .  S
O1433      C1437   1.273       .  A
O1434     Mg3277   2.353   1_455  S
O1435      C1454   1.268       .  A
O1436      C1456   1.275       .  A
O1436     Mg1452   2.321       .  S
O1438     Mg1452   2.146       .  S
O1438      C1449   1.234       .  S
O1439     Mg1458   2.171       .  S
O1440     Mg1452   2.314       .  S
Mg1441     O3270   2.353       .  S
Mg1441     O3293   2.281       .  S
O1442     Mg3294   2.270       .  S
H1443      C1448   1.081       .  S
O1444     Mg1452   2.115       .  S
O1444      C1447   1.239       .  S
H1445      C1447   1.081       .  S
H1446      C1449   1.080       .  S
O1451     Mg1458   2.291       .  S
C1454      O1459   1.271       .  A
C1454      C1694   1.465       .  S
O1455      C1456   1.274       .  A
C1456      C1650   1.475       .  S
O1457      C3266   1.276       .  A
O1457     Mg3277   2.276       .  S
Mg1458     O3278   2.275       .  S
C1461      C1761   1.480       .  S
C1461      C1462   1.397       .  A
C1461      C1466   1.414       .  A
C1462      H1481   1.086       .  S
C1462      C1463   1.397       .  A
C1463      C1749   1.477       .  S
C1463      C1464   1.411       .  A
C1464      C1465   1.420       .  A
C1464      C1471   1.406       .  A
C1465      C1466   1.420       .  A
C1465      C1470   1.416       .  A
C1466      C1467   1.407       .  A
C1467      H1477   1.083       .  S
C1467      C1468   1.398       .  A
C1468      H1478   1.082       .  S
C1468      C1469   1.406       .  A
C1469      C1470   1.420       .  A
C1469      C1476   1.415       .  A
C1470      C1473   1.417       .  A
C1471      H1479   1.080       .  S
C1471      C1472   1.388       .  A
C1472      H1480   1.082       .  S
C1472      C1473   1.403       .  A
C1473      C1474   1.406       .  A
C1474      C1693   1.475       .  S
C1474      C1475   1.398       .  A
C1475      H1482   1.085       .  S
C1475      C1476   1.396       .  A
C1476      C1706   1.481       .  S
C1483      C1822   1.484       .  S
C1483      C1484   1.399       .  A
C1483      C1488   1.417       .  A
C1484      H1503   1.086   1_655  S
C1484      C1485   1.396   1_655  A
C1485      C1786   1.484       .  S
C1485      C1486   1.411   1_455  A
C1486      C1487   1.424       .  A
C1486      C1493   1.403       .  A
C1487      C1488   1.421       .  A
C1487      C3328   1.419       .  A
C1488      C1489   1.408       .  A
C1489      H1499   1.082       .  S
C1489      C3326   1.398       .  A
C1490      H1500   1.082       .  S
C1490      C3325   1.398       .  A
C1490      C1491   1.406       .  A
C1491      C1492   1.424       .  A
C1491      C1498   1.420       .  A
C1492      C3323   1.421       .  A
C1492      C1495   1.420       .  A
C1493      H1501   1.081       .  S
C1493      C3330   1.386       .  A
C1494      H1502   1.083       .  S
C1494      C3329   1.388       .  A
C1494      C1495   1.404       .  A
C1495      C1496   1.406       .  A
C1496      C1701   1.478       .  S
C1496      C1497   1.396       .  A
C1497      H1504   1.085       .  S
C1497      C1498   1.396       .  A
C1498      C1713   1.489       .  S
C1505      C1826   1.492       .  S
C1505      C1506   1.395       .  A
C1505      C1510   1.417       .  A
C1506      H1525   1.086       .  S
C1506      C1507   1.393       .  A
C1507      C1778   1.488       .  S
C1507      C1508   1.413       .  A
C1508      C1509   1.423       .  A
C1508      C1515   1.403       .  A
C1509      C1510   1.423       .  A
C1509      C1514   1.424       .  A
C1510      C1511   1.403       .  A
C1511      H1521   1.082       .  S
C1511      C1512   1.394       .  A
C1512      H1522   1.082       .  S
C1512      C1513   1.411       .  A
C1513      C1514   1.418       .  A
C1513      C1520   1.425       .  A
C1514      C1517   1.415       .  A
C1515      H1523   1.083       .  S
C1515      C1516   1.397       .  A
C1516      H1524   1.083       .  S
C1516      C1517   1.410       .  A
C1517      C1518   1.415       .  A
C1518      C1698   1.478       .  S
C1518      C1519   1.404       .  A
C1519      H1526   1.081       .  S
C1519      C1520   1.400       .  A
C1520      C1738   1.491       .  S
C1527      C1789   1.500       .  S
C1527      C1528   1.404       .  A
C1527      C1532   1.424       .  A
C1528      H1547   1.085       .  S
C1528      C1529   1.396       .  A
C1529      C1773   1.483       .  S
C1529      C1530   1.410       .  A
C1530      C1531   1.422       .  A
C1530      C1537   1.403       .  A
C1531      C1532   1.424       .  A
C1532      C1533   1.410       .  A
C1533      H1543   1.080       .  S
C1534      H1544   1.083       .  S
C1534      C1535   1.409       .  A
C1535      C1536   1.415       .  A
C1535      C1542   1.419       .  A
C1536      C1539   1.419       .  A
C1537      H1545   1.083       .  S
C1538      H1546   1.079       .  S
C1538      C1539   1.411       .  A
C1539      C1540   1.427       .  A
C1540      C1709   1.496       .  S
C1540      C1541   1.417       .  A
C1541      H1548   1.083       .  S
C1541      C1542   1.408       .  A
C1542      C1734   1.502       .  S
O1549     Mg3387   2.154   1_455  S
O1549     Mg1557   2.182   1_554  S
O1549      C1584   1.232       .  S
C1550      O1563   1.233       .  S
C1550      O1587   1.267       .  A
C1550      H1589   1.082       .  S
Mg1551     O3385   2.157       .  S
Mg1551     O1580   2.192   1_554  S
Mg1551     O1595   2.332       .  S
Mg1551     O1591   2.272       .  S
Mg1551     O1562   2.296       .  S
O1552     Mg1594   2.189   1_554  S
O1552     Mg1577   2.174       .  S
O1552      C1573   1.234       .  S
O1553     Mg1577   2.296       .  S
C1554      O1556   1.277   1_545  A
O1555      C3419   1.267       .  A
O1555     Mg1557   2.293   1_655  S
O1556     Mg1588   2.304       .  S
Mg1557     O1571   2.240       .  S
Mg1557     O1559   2.289   1_556  S
C1558      O3432   1.268   1_456  A
C1558      O1564   1.276       .  A
C1558      C3077   1.461       .  S
H1560      C1573   1.082       .  S
C1561      O1575   1.233       .  S
C1561      H1586   1.081       .  S
O1562      C1585   1.268       .  A
O1563     Mg1577   2.167   1_556  S
O1564     Mg1594   2.311       .  S
C1565      O1578   1.274       .  A
C1565      O1570   1.271   1_556  A
C1566      O1593   1.273       .  A
Mg1567     O1575   2.172   1_554  S
Mg1567     O1568   2.293   1_554  S
Mg1567     O1569   2.299       .  S
Mg1567     O1596   2.259       .  S
O1569      C3409   1.269       .  A
O1570     Mg1577   2.285       .  S
O1571      C3426   1.268   1_456  A
O1572      C1592   1.274       .  A
O1572     Mg1588   2.304   1_554  S
C1573      O3405   1.268       .  A
O1574     Mg1588   2.169   1_554  S
O1574      C1585   1.233       .  S
O1575     Mg3430   2.154       .  S
O1576     Mg1588   2.295   1_545  S
Mg1577     O1593   2.283       .  S
O1578     Mg1594   2.270       .  S
H1579      C1584   1.081       .  S
O1580     Mg1588   2.182       .  S
O1580      C1583   1.233       .  S
H1581      C1583   1.082       .  S
H1582      C1585   1.081       .  S
C1583      O3391   1.268       .  A
O1587     Mg1594   2.293       .  S
C1590      O3407   1.268       .  A
C1590      O1595   1.278       .  A
C1590      C3104   1.467       .  S
O1591      C1592   1.275       .  A
Mg1594     O3411   2.150   1_455  S
O1596      C3394   1.270   1_554  A
O1597     Mg1599   2.179       .  S
O1597     Mg1605   2.145       .  S
O1597      C1632   1.236       .  S
C1598      O1611   1.235       .  S
C1598      O1635   1.270       .  A
C1598      H1637   1.081       .  S
Mg1599     O1628   2.141       .  S
Mg1599     O1643   2.299       .  S
Mg1599     O1639   2.285       .  S
Mg1599     O1610   2.314       .  S
O1600     Mg1642   2.149       .  S
O1600     Mg1625   2.159       .  S
O1600      C1621   1.236       .  S
O1601      C1632   1.273       .  A
O1601     Mg1625   2.321       .  S
C1602      O1604   1.265       .  A
C1602      O1616   1.275       .  A
O1603      C1631   1.272       .  A
O1603     Mg1605   2.317       .  S
O1604     Mg1636   2.245       .  S
Mg1605     O1611   2.154       .  S
Mg1605     O1619   2.265       .  S
Mg1605     O1607   2.333       .  S
C1606      O1644   1.273       .  A
C1606      O1612   1.269       .  A
O1607      C1614   1.276       .  A
H1608      C1621   1.081       .  S
C1609      O1623   1.236       .  S
C1609      O1624   1.272       .  A
C1609      H1634   1.081       .  S
O1610      C1633   1.271       .  A
O1611     Mg1625   2.140       .  S
O1612     Mg1642   2.295       .  S
C1613      O1626   1.266       .  A
C1613      O1618   1.270       .  A
C1614      O1641   1.267       .  A
Mg1615     O1622   2.164       .  S
Mg1615     O1623   2.135       .  S
Mg1615     O1616   2.321       .  S
Mg1615     O1617   2.314       .  S
Mg1615     O1644   2.290       .  S
O1617      C1621   1.272       .  A
O1618     Mg1625   2.302       .  S
O1619      C1638   1.270       .  A
O1620      C1640   1.270       .  A
O1620     Mg1636   2.306       .  S
O1622     Mg1636   2.142       .  S
O1622      C1633   1.235       .  S
O1623     Mg1642   2.157       .  S
O1624     Mg1636   2.315       .  S
Mg1625     O1641   2.258       .  S
O1626     Mg1642   2.244       .  S
H1627      C1632   1.081       .  S
O1628     Mg1636   2.161       .  S
O1628      C1631   1.236       .  S
H1629      C1631   1.081       .  S
H1630      C1633   1.082       .  S
O1635     Mg1642   2.307       .  S
C1638      O1643   1.271       .  A
O1639      C1640   1.271       .  A
O1645     Mg1647   2.156       .  S
O1645     Mg1653   2.140       .  S
O1645      C1680   1.234       .  S
C1646      O1659   1.234       .  S
C1646      O1683   1.269       .  A
C1646      H1685   1.081       .  S
Mg1647     O1676   2.166       .  S
Mg1647     O1691   2.300       .  S
Mg1647     O1687   2.273       .  S
Mg1647     O1658   2.319       .  S
O1648     Mg1690   2.183       .  S
O1648     Mg1673   2.166       .  S
O1648      C1669   1.235       .  S
O1649      C1680   1.269       .  A
O1649     Mg1673   2.301       .  S
C1650      O1652   1.269       .  A
C1650      O1664   1.269       .  A
O1651      C1679   1.274       .  A
O1651     Mg1653   2.319       .  S
O1652     Mg1684   2.293       .  S
Mg1653     O1659   2.172       .  S
Mg1653     O1667   2.313       .  S
Mg1653     O1655   2.362       .  S
C1654      O1692   1.270       .  A
C1654      O1660   1.273       .  A
O1655      C1662   1.283       .  A
H1656      C1669   1.081       .  S
C1657      O1671   1.236       .  S
C1657      O1672   1.275       .  A
C1657      H1682   1.081       .  S
O1658      C1681   1.273       .  A
O1659     Mg1673   2.159       .  S
O1660     Mg1690   2.308       .  S
C1661      O1674   1.272       .  A
C1661      O1666   1.275       .  A
C1662      O1689   1.275       .  A
Mg1663     O1670   2.188       .  S
Mg1663     O1671   2.145       .  S
Mg1663     O1664   2.303       .  S
Mg1663     O1665   2.307       .  S
Mg1663     O1692   2.277       .  S
O1665      C1669   1.271       .  A
O1666     Mg1673   2.300       .  S
O1667      C1686   1.278       .  A
O1668      C1688   1.274       .  A
O1668     Mg1684   2.309       .  S
O1670     Mg1684   2.143       .  S
O1670      C1681   1.236       .  S
O1671     Mg1690   2.172       .  S
O1672     Mg1684   2.333       .  S
Mg1673     O1689   2.295       .  S
O1674     Mg1690   2.296       .  S
H1675      C1680   1.081       .  S
O1676     Mg1684   2.163       .  S
O1676      C1679   1.238       .  S
H1677      C1679   1.082       .  S
H1678      C1681   1.081       .  S
O1683     Mg1690   2.299       .  S
C1686      O1691   1.271       .  A
O1687      C1688   1.268       .  A
C1693      C1694   1.343       .  D
C1693      H1695   1.087       .  S
C1694      H1696   1.088       .  S
C1697      C1698   1.344       .  D
C1697      H1699   1.086       .  S
C1698      H1700   1.088       .  S
C1701      C1702   1.341       .  D
C1701      H1703   1.087       .  S
C1702      H1704   1.088       .  S
C1705      C1706   1.348       .  D
C1706      H1708   1.086       .  S
C1709      C1710   1.350       .  D
C1709      H1711   1.087       .  S
C1710      H1712   1.087       .  S
C1713      C1714   1.350       .  D
C1713      H1715   1.086       .  S
C1714      H1716   1.087       .  S
C1717      C1718   1.340   1_455  D
C1717      H1719   1.087       .  S
C1718      C3266   1.460       .  S
C1718      H3556   1.087       .  S
H1720      C3554   1.087       .  S
C1721      C1722   1.346       .  D
C1721      H1723   1.086       .  S
C1722      C3218   1.492   1_455  S
C1722      H3560   1.087       .  S
H1724      C3558   1.087       .  S
C1725      C1726   1.354       .  D
C1726      H1728   1.085   1_565  S
C1729      C1730   1.341       .  D
C1729      H1731   1.088       .  S
C1730      H1732   1.086       .  S
C1733      C1734   1.345       .  D
C1733      H1735   1.088       .  S
C1734      H1736   1.087       .  S
C1737      C1738   1.348       .  D
C1737      H1739   1.088       .  S
C1738      H1740   1.087       .  S
C1741      C1742   1.348       .  D
C1741      H1743   1.087       .  S
C1742      H1744   1.087       .  S
C1745      C1746   1.354       .  D
C1745      H1747   1.087       .  S
C1746      H1748   1.086       .  S
C1749      C1750   1.342       .  D
C1749      H1751   1.087       .  S
C1750      H1752   1.087       .  S
C1753      C1754   1.342       .  D
C1753      H1755   1.086       .  S
C1754      H1756   1.088       .  S
C1757      C1758   1.345       .  D
C1757      H1759   1.088       .  S
C1758      H1760   1.086       .  S
C1761      C1762   1.349       .  D
C1761      H1763   1.087       .  S
C1762      H1764   1.086       .  S
C1765      C1766   1.354       .  D
C1765      H1767   1.086       .  S
C1766      H1768   1.087       .  S
C1769      C1770   1.336       .  D
C1769      H1771   1.086       .  S
C1770      H1772   1.089       .  S
C1773      C1774   1.344       .  D
C1773      H1775   1.086       .  S
C1774      H1776   1.087       .  S
C1777      C1778   1.353       .  D
C1777      H1779   1.088       .  S
C1778      H1780   1.086       .  S
C1781      C1782   1.345       .  D
C1781      H1783   1.087       .  S
C1782      H1784   1.087       .  S
C1785      C1786   1.349       .  D
C1785      H1787   1.087       .  S
C1786      H1788   1.087   1_455  S
C1789      C1790   1.351       .  D
C1789      H1791   1.084       .  S
C1790      H1792   1.087       .  S
C1793      C2864   1.476       .  S
C1793      C1794   1.352       .  D
C1793      H3631   1.087       .  S
C1794      H1796   1.085       .  S
H1795      C3629   1.086       .  S
C1797      C1798   1.348       .  D
C1797      H1799   1.087       .  S
C1798      H1800   1.087       .  S
C1801      C1802   1.345       .  D
C1801      H1803   1.087       .  S
C1802      H1804   1.087       .  S
C1805      C1806   1.353       .  D
C1805      H1807   1.086       .  S
C1806      H1808   1.088       .  S
C1809      C1810   1.336       .  D
C1809      H1811   1.087       .  S
C1810      H1812   1.087       .  S
C1813      C1814   1.348       .  D
C1813      H1815   1.087       .  S
C1814      H1816   1.086       .  S
C1817      C1818   1.339       .  D
C1818      H1820   1.088       .  S
C1821      C1822   1.345   1_455  D
C1821      H1823   1.087       .  S
C1822      H1824   1.088       .  S
C1825      C1826   1.350       .  D
C1825      H1827   1.087       .  S
C1826      H1828   1.085       .  S
C1829      C2760   1.465       .  S
C1829      C1830   1.351       .  D
C1829      H1831   1.088       .  S
C1830      H1832   1.086       .  S
C1833      C1834   1.340       .  D
C1833      H1835   1.087       .  S
C1834      H1836   1.087       .  S
O1837     Mg1839   2.130       .  S
O1837     Mg1845   2.164       .  S
O1837      C1872   1.234       .  S
C1838      O1851   1.235       .  S
C1838      O1875   1.270       .  A
C1838      H1877   1.081       .  S
Mg1839     O1868   2.158       .  S
Mg1839     O1883   2.319       .  S
Mg1839     O1850   2.296       .  S
O1840     Mg1882   2.161       .  S
O1840     Mg1865   2.151       .  S
O1840      C1861   1.232       .  S
O1841      C1872   1.266       .  A
O1841     Mg1865   2.279       .  S
C1842      O1856   1.270       .  A
O1843      C1871   1.268       .  A
O1843     Mg1845   2.297       .  S
Mg1845     O1851   2.169       .  S
Mg1845     O1859   2.282       .  S
Mg1845     O1847   2.309       .  S
C1846      O1884   1.267       .  A
C1846      O1852   1.282       .  A
C1846      C2752   1.478       .  S
O1847      C1854   1.274       .  A
H1848      C1861   1.081       .  S
C1849      O1863   1.234       .  S
C1849      O1864   1.267       .  A
C1849      H1874   1.082       .  S
O1850      C1873   1.270       .  A
O1851     Mg1865   2.177       .  S
O1852     Mg1882   2.344       .  S
C1853      O1866   1.276       .  A
C1853      O1858   1.269       .  A
C1853      C2532   1.462       .  S
C1854      O1881   1.269       .  A
C1854      C2743   1.466       .  S
Mg1855     O1862   2.146       .  S
Mg1855     O1863   2.177       .  S
Mg1855     O1856   2.288       .  S
Mg1855     O1857   2.291       .  S
Mg1855     O1884   2.225       .  S
O1857      C1861   1.266       .  A
O1858     Mg1865   2.276       .  S
O1859      C1878   1.275       .  A
O1860      C1880   1.270       .  A
O1862     Mg1876   2.172       .  S
O1862      C1873   1.236       .  S
O1863     Mg1882   2.141       .  S
O1864     Mg1876   2.286       .  S
Mg1865     O1881   2.235       .  S
O1866     Mg1882   2.282       .  S
H1867      C1872   1.081       .  S
O1868     Mg1876   2.145       .  S
O1868      C1871   1.234       .  S
H1869      C1871   1.081       .  S
H1870      C1873   1.081       .  S
O1875     Mg1882   2.303       .  S
C1878      O1883   1.280       .  A
C1878      C2739   1.485       .  S
O1879      C1880   1.275       .  A
C1880      C2520   1.461       .  S
C1885      C2751   1.489       .  S
C1885      C1886   1.403       .  A
C1885      C1890   1.421       .  A
C1886      H1905   1.085       .  S
C1886      C1887   1.399       .  A
C1887      C2736   1.483       .  S
C1887      C1888   1.408       .  A
C1888      C1889   1.420       .  A
C1888      C1895   1.405       .  A
C1889      C1890   1.421       .  A
C1889      C1894   1.415       .  A
C1890      C1891   1.411       .  A
C1891      H1901   1.078       .  S
C1891      C1892   1.398       .  A
C1892      H1902   1.082       .  S
C1892      C1893   1.403       .  A
C1893      C1894   1.418       .  A
C1893      C1900   1.414       .  A
C1894      C1897   1.416       .  A
C1895      H1903   1.083       .  S
C1895      C1896   1.394       .  A
C1896      H1904   1.083       .  S
C1896      C1897   1.406       .  A
C1897      C1898   1.409       .  A
C1898      C2731   1.470       .  S
C1898      C1899   1.394       .  A
C1899      H1906   1.086       .  S
C1899      C1900   1.397       .  A
C1900      C2727   1.479       .  S
C1907      C2748   1.495       .  S
C1907      C1908   1.391       .  A
C1907      C1912   1.418       .  A
C1908      H1927   1.086       .  S
C1908      C1909   1.392       .  A
C1909      C2723   1.486       .  S
C1909      C1910   1.414       .  A
C1910      C1911   1.423       .  A
C1910      C1917   1.405       .  A
C1911      C1912   1.428       .  A
C1911      C1916   1.423       .  A
C1912      C1913   1.404       .  A
C1913      H1923   1.082   1_655  S
C1913      C1914   1.397       .  A
C1914      H1924   1.082   1_655  S
C1914      C1915   1.407       .  A
C1915      C1916   1.422       .  A
C1915      C1922   1.414       .  A
C1916      C1919   1.426       .  A
C1917      H1925   1.083   1_545  S
C1917      C1918   1.399       .  A
C1918      H1926   1.082       .  S
C1918      C1919   1.407       .  A
C1919      C1920   1.420       .  A
C1920      C2720   1.493       .  S
C1920      C1921   1.399       .  A
C1921      H1928   1.086       .  S
C1921      C1922   1.400       .  A
C1922      C2715   1.485       .  S
O1929     Mg1931   2.129       .  S
O1929     Mg1937   2.150       .  S
O1929      C1964   1.232       .  S
C1930      O1943   1.237       .  S
C1930      O1967   1.271       .  A
C1930      H1969   1.081       .  S
Mg1931     O1960   2.156       .  S
Mg1931     O1975   2.268       .  S
Mg1931     O2889   2.257       .  S
Mg1931     O1942   2.294       .  S
O1932     Mg1974   2.157       .  S
O1932     Mg1957   2.153       .  S
O1932      C1953   1.236       .  S
O1933      C1964   1.264       .  A
O1933     Mg1957   2.281       .  S
C1934      O1936   1.271       .  A
C1934      O1948   1.279       .  A
C1934      C2708   1.481       .  S
O1935      C1963   1.270       .  A
O1935     Mg1937   2.297       .  S
O1936     Mg1968   2.256       .  S
Mg1937     O1943   2.174       .  S
Mg1937     O1951   2.322       .  S
Mg1937     O1939   2.312       .  S
C1938      O1976   1.273       .  A
C1938      O1944   1.272       .  A
C1938      C2703   1.480       .  S
O1939      C1946   1.277       .  A
H1940      C1953   1.081       .  S
C1941      O1955   1.233       .  S
C1941      O1956   1.267       .  A
C1941      H1966   1.080       .  S
O1942      C1965   1.271       .  A
O1943     Mg1957   2.192       .  S
O1944     Mg1974   2.279       .  S
C1945      O1958   1.270       .  A
C1945      O1950   1.275       .  A
C1945      C2558   1.469       .  S
Mg1947     O1954   2.156       .  S
Mg1947     O1955   2.153       .  S
Mg1947     O1948   2.335       .  S
Mg1947     O1949   2.317       .  S
Mg1947     O1976   2.290       .  S
O1949      C1953   1.272       .  A
O1951      C1970   1.279       .  A
O1952      C1972   1.274       .  A
O1952     Mg2886   2.299   1_545  S
O1954     Mg1968   2.186       .  S
O1954      C1965   1.238       .  S
O1955     Mg1974   2.155       .  S
O1956     Mg1968   2.294       .  S
H1959      C1964   1.081       .  S
O1960     Mg1968   2.132       .  S
O1960      C1963   1.236       .  S
H1961      C1963   1.080       .  S
H1962      C1965   1.081       .  S
O1967     Mg1974   2.298       .  S
Mg1968     O2870   2.290       .  S
C1970      O1975   1.269       .  A
C1970      C3653   1.474       .  S
O1971      C1972   1.269       .  A
O1971     Mg2849   2.274   1_545  S
C1972      C2531   1.467       .  S
O1977     Mg1979   2.137       .  S
O1977     Mg1985   2.150       .  S
O1977      C2012   1.232       .  S
C1978      O1991   1.237       .  S
C1978      O2015   1.272       .  A
C1978      H2017   1.081       .  S
Mg1979     O2008   2.137       .  S
Mg1979     O2023   2.277       .  S
Mg1979     O2019   2.271       .  S
Mg1979     O1990   2.310       .  S
O1980     Mg2022   2.147       .  S
O1980     Mg2005   2.147       .  S
O1980      C2001   1.237       .  S
O1981      C2012   1.265       .  A
O1981     Mg2005   2.285       .  S
C1982      O1984   1.271       .  A
C1982      O1996   1.274       .  A
C1982      C2695   1.465       .  S
O1983      C2011   1.271       .  A
O1983     Mg1985   2.306       .  S
O1984     Mg2016   2.238       .  S
Mg1985     O1991   2.164       .  S
Mg1985     O1999   2.270       .  S
Mg1985     O1987   2.285       .  S
C1986      O2024   1.273       .  A
C1986      O1992   1.270       .  A
C1986      C2692   1.482       .  S
O1987      C1994   1.271       .  A
H1988      C2001   1.081       .  S
C1989      O2003   1.233       .  S
C1989      O2004   1.268       .  A
C1989      H2014   1.081       .  S
O1990      C2013   1.274       .  A
O1991     Mg2005   2.185       .  S
O1992     Mg2022   2.296       .  S
C1993      O2006   1.267       .  A
C1993      O1998   1.276       .  A
C1993      C2524   1.461       .  S
C1994      O2939   1.273       .  A
C1994      C3642   1.470       .  S
Mg1995     O2002   2.182       .  S
Mg1995     O2003   2.141       .  S
Mg1995     O1996   2.307       .  S
Mg1995     O1997   2.318       .  S
Mg1995     O2024   2.303       .  S
O1997      C2001   1.273       .  A
O1998     Mg2923   2.312   1_545  S
O1999      C2018   1.269       .  A
O2000      C2020   1.277       .  A
O2000     Mg2016   2.329       .  S
O2002     Mg2016   2.184       .  S
O2002      C2013   1.239       .  S
O2003     Mg2022   2.153       .  S
O2004     Mg2016   2.301       .  S
Mg2005     O2916   2.287       .  S
Mg2005     O2939   2.269       .  S
O2006     Mg2940   2.252   1_545  S
H2007      C2012   1.082       .  S
O2008     Mg2016   2.119       .  S
O2008      C2011   1.237       .  S
H2009      C2011   1.081       .  S
H2010      C2013   1.080       .  S
O2015     Mg2022   2.303       .  S
C2018      O2023   1.270       .  A
C2018      C2699   1.473       .  S
O2019      C2020   1.269       .  A
C2020      C2556   1.473       .  S
O2021      C2912   1.272   1_545  A
O2021     Mg2923   2.259   1_545  S
Mg2022     O2924   2.271       .  S
C2025      C2712   1.500       .  S
C2025      C2026   1.405       .  A
C2025      C2030   1.427       .  A
C2026      H2045   1.083       .  S
C2026      C2027   1.392       .  A
C2027      C2700   1.476       .  S
C2027      C2028   1.404       .  A
C2028      C2029   1.422       .  A
C2028      C2035   1.403       .  A
C2029      C2030   1.423       .  A
C2029      C2034   1.420       .  A
C2030      C2031   1.412       .  A
C2031      H2041   1.081       .  S
C2031      C2032   1.402       .  A
C2032      H2042   1.083       .  S
C2032      C2033   1.405       .  A
C2033      C2034   1.426       .  A
C2033      C2040   1.425       .  A
C2034      C2037   1.419       .  A
C2035      H2043   1.082       .  S
C2035      C2036   1.385       .  A
C2036      H2044   1.083       .  S
C2036      C2037   1.402       .  A
C2037      C2038   1.400       .  A
C2038      C2687   1.466       .  S
C2038      C2039   1.386       .  A
C2039      H2046   1.086       .  S
C2039      C2040   1.395       .  A
C2040      C2683   1.494       .  S
O2047     Mg2049   2.170       .  S
O2047     Mg2973   2.184   1_545  S
O2047      C2082   1.235       .  S
C2048      O2061   1.235       .  S
C2048      O2085   1.270   1_556  A
C2048      H2087   1.081       .  S
Mg2049     O2996   2.162   1_545  S
Mg2049     O3011   2.271   1_545  S
Mg2049     O2089   2.291       .  S
Mg2049     O2060   2.308       .  S
O2050     Mg3010   2.156   1_545  S
O2050     Mg2075   2.145   1_554  S
O2050      C2071   1.235       .  S
O2051      C2082   1.271       .  A
O2051     Mg2075   2.306       .  S
C2052      O2054   1.278       .  A
C2052      O2066   1.278       .  A
C2052      C2719   1.492       .  S
O2053      C2081   1.269       .  A
O2053     Mg2055   2.296       .  S
O2054     Mg3004   2.305   1_545  S
Mg2055     O2965   2.173       .  S
Mg2055     O2061   2.156       .  S
Mg2055     O2069   2.296       .  S
Mg2055     O2057   2.302       .  S
C2056      O2094   1.274       .  A
C2056      O2062   1.267       .  A
C2056      C2732   1.472       .  S
O2057      C2064   1.275       .  A
H2058      C2071   1.081   1_556  S
C2059      O2073   1.236       .  S
C2059      O2074   1.271       .  A
C2059      H2084   1.081       .  S
O2060      C2083   1.271   1_556  A
O2061     Mg2993   2.150       .  S
O2062     Mg3010   2.231   1_545  S
C2063      O2076   1.269       .  A
C2063      O2068   1.280   1_554  A
C2063      C3402   1.474       .  S
C2064      O2091   1.276       .  A
C2064      C2675   1.476       .  S
Mg2065     O2072   2.154       .  S
Mg2065     O2991   2.180       .  S
Mg2065     O2066   2.329       .  S
Mg2065     O2067   2.298       .  S
Mg2065     O2094   2.298       .  S
O2067      C2071   1.270       .  A
O2068     Mg2993   2.342       .  S
O2069      C2088   1.273       .  A
O2070      C2090   1.277   1_554  A
O2070     Mg3004   2.318   1_545  S
O2072     Mg3004   2.147   1_545  S
O2072      C2083   1.235       .  S
O2073     Mg2983   2.183       .  S
O2073     Mg2092   2.159       .  S
O2074     Mg2086   2.304       .  S
Mg2075     O2979   2.149   1_545  S
Mg2075     O2986   2.323   1_545  S
Mg2075     O3009   2.273   1_545  S
O2076     Mg2092   2.277       .  S
H2077      C2082   1.081       .  S
O2078     Mg2967   2.156       .  S
O2078     Mg2086   2.151   1_556  S
O2078      C2081   1.235       .  S
H2079      C2081   1.081   1_554  S
H2080      C2083   1.081       .  S
O2085     Mg2092   2.301       .  S
Mg2086     O2990   2.144       .  S
Mg2086     O2972   2.280       .  S
Mg2086     O2988   2.315       .  S
C2088      O2093   1.268       .  A
C2088      C2680   1.475       .  S
O2089      C2090   1.271       .  A
C2090      C3390   1.471       .  S
O2091     Mg2993   2.279       .  S
Mg2092     O2968   2.156       .  S
Mg2092     O2980   2.238       .  S
O2093     Mg2967   2.257       .  S
O2095     Mg2097   2.141       .  S
O2095     Mg2103   2.145       .  S
O2095      C2130   1.236       .  S
C2096      O2109   1.233       .  S
C2096      O2133   1.267   1_556  A
C2096      H2135   1.081       .  S
Mg2097     O2126   2.173       .  S
Mg2097     O2141   2.230       .  S
Mg2097     O2137   2.233       .  S
Mg2097     O2108   2.290       .  S
O2098     Mg2140   2.168       .  S
O2098     Mg2123   2.148   1_554  S
O2098      C2119   1.238       .  S
O2099      C2130   1.273       .  A
O2099     Mg2123   2.321       .  S
C2100      O2102   1.276       .  A
C2100      O2114   1.268       .  A
C2100      C2728   1.478       .  S
O2101      C2129   1.272       .  A
O2101     Mg2103   2.306       .  S
O2102     Mg2134   2.289       .  S
Mg2103     O2109   2.155       .  S
Mg2103     O2117   2.275       .  S
Mg2103     O2105   2.272       .  S
C2104      O2142   1.265       .  A
C2104      O2110   1.263       .  A
C2104      C2688   1.453       .  S
O2105      C2112   1.265       .  A
H2106      C2119   1.081       .  S
C2107      O2121   1.235       .  S
C2107      O2122   1.272       .  A
C2107      H2132   1.081       .  S
O2108      C2131   1.266   1_556  A
O2109     Mg2123   2.138       .  S
O2110     Mg2140   2.235       .  S
C2111      O2124   1.266       .  A
C2111      O2116   1.281   1_554  A
C2111      C2510   1.469       .  S
C2112      O2139   1.275       .  A
C2112      C2668   1.475       .  S
Mg2113     O2120   2.131       .  S
Mg2113     O2121   2.148       .  S
Mg2113     O2114   2.284       .  S
Mg2113     O2115   2.307       .  S
Mg2113     O2142   2.238       .  S
O2115      C2119   1.273       .  A
O2116     Mg2123   2.349       .  S
O2117      C2136   1.269       .  A
O2118      C2138   1.279   1_554  A
O2118     Mg2134   2.331       .  S
O2120     Mg2134   2.132       .  S
O2120      C2131   1.232       .  S
O2121     Mg2140   2.147       .  S
O2122     Mg2134   2.315       .  S
Mg2123     O2139   2.291       .  S
O2124     Mg2140   2.249       .  S
H2125      C2130   1.081       .  S
O2126     Mg2134   2.145   1_556  S
O2126      C2129   1.238       .  S
H2127      C2129   1.081       .  S
H2128      C2131   1.081       .  S
O2133     Mg2140   2.298       .  S
C2136      O2141   1.262       .  A
C2136      C2672   1.461       .  S
O2137      C2138   1.265       .  A
C2138      C2483   1.460       .  S
O2143     Mg2145   2.175       .  S
O2143      C2178   1.237       .  S
C2144      O2157   1.235       .  S
C2144      O2181   1.270   1_554  A
C2144      H2183   1.081       .  S
Mg2145     O2185   2.317       .  S
Mg2145     O2156   2.292       .  S
O2146     Mg2171   2.161   1_556  S
O2146      C2167   1.233       .  S
O2147      C2178   1.274       .  A
O2147     Mg2171   2.320       .  S
C2148      O2150   1.269       .  A
C2148      O2162   1.275       .  A
C2148      C2659   1.482       .  S
O2149      C2177   1.268       .  A
O2149     Mg2151   2.298       .  S
Mg2151     O2157   2.150       .  S
Mg2151     O2165   2.242       .  S
Mg2151     O2153   2.315       .  S
C2152      O2190   1.270       .  A
C2152      O2158   1.281       .  A
C2152      C2663   1.470       .  S
O2153      C2160   1.273       .  A
H2154      C2167   1.081   1_554  S
C2155      O2169   1.237   1_655  S
C2155      O2170   1.271       .  A
C2155      H2180   1.081       .  S
O2156      C2179   1.267   1_554  A
C2159      O2172   1.279       .  A
C2159      O2164   1.269   1_556  A
C2160      O2187   1.269   1_655  A
C2160      C2716   1.484       .  S
Mg2161     O2168   2.131       .  S
Mg2161     O2162   2.303       .  S
Mg2161     O2163   2.295       .  S
Mg2161     O2190   2.244       .  S
O2163      C2167   1.267       .  A
O2165      C2184   1.269       .  A
O2166      C2186   1.265   1_556  A
O2168      C2179   1.233       .  S
O2169     Mg2188   2.163       .  S
O2170     Mg2182   2.299       .  S
O2172     Mg2188   2.315       .  S
H2173      C2178   1.082       .  S
O2174     Mg2182   2.168   1_554  S
O2174      C2177   1.234       .  S
H2175      C2177   1.081       .  S
H2176      C2179   1.081       .  S
O2181     Mg2188   2.307   1_655  S
C2184      O2189   1.279       .  A
C2184      C2684   1.472       .  S
O2185      C2186   1.279       .  A
O2191     Mg2193   2.145       .  S
O2191     Mg2199   2.152       .  S
O2191      C2226   1.233       .  S
C2192      O2205   1.238       .  S
C2192      O2229   1.273       .  A
C2192      H2231   1.083       .  S
Mg2193     O2222   2.151       .  S
Mg2193     O2237   2.316       .  S
Mg2193     O3151   2.280   1_545  S
Mg2193     O2204   2.307       .  S
O2194     Mg2236   2.138       .  S
O2194     Mg2219   2.115       .  S
O2194      C2215   1.234       .  S
O2195      C2226   1.267       .  A
O2195     Mg2219   2.291       .  S
C2196      O3116   1.271       .  A
C2196      O2210   1.273   1_565  A
C2196      C3561   1.465       .  S
O2197      C2225   1.270       .  A
O2197     Mg2199   2.307       .  S
O2198      C3114   1.272       .  A
O2198     Mg3148   2.232       .  S
Mg2199     O2205   2.193       .  S
Mg2199     O2213   2.308       .  S
Mg2199     O2201   2.310       .  S
C2200      O2238   1.276       .  A
C2200      O2206   1.267       .  A
C2200      C2647   1.473       .  S
O2201      C2208   1.274       .  A
H2202      C2215   1.080       .  S
C2203      O2217   1.232       .  S
C2203      O2218   1.266       .  A
C2203      H2228   1.082       .  S
O2204      C2227   1.272       .  A
O2205     Mg2219   2.195       .  S
O2206     Mg2236   2.282       .  S
C2207      O2220   1.266       .  A
C2207      O2212   1.273       .  A
C2207      C2572   1.467       .  S
C2208      O2235   1.266       .  A
C2208      C2655   1.458       .  S
Mg2209     O2216   2.188       .  S
Mg2209     O2217   2.140       .  S
Mg2209     O2210   2.294       .  S
Mg2209     O2211   2.304       .  S
Mg2209     O2238   2.313       .  S
O2211      C2215   1.269       .  A
O2212     Mg2219   2.311       .  S
O2213      C2232   1.277       .  A
O2214      C2234   1.274       .  A
O2214     Mg3148   2.309       .  S
O2216     Mg2230   2.191       .  S
O2216      C2227   1.237       .  S
O2217     Mg2236   2.129       .  S
O2218     Mg2230   2.286       .  S
Mg2219     O2235   2.200       .  S
O2220     Mg2236   2.251       .  S
H2221      C2226   1.074       .  S
O2222     Mg2230   2.150       .  S
O2222      C2225   1.234       .  S
H2223      C2225   1.080       .  S
H2224      C2227   1.083       .  S
O2229     Mg2236   2.308       .  S
Mg2230     O3116   2.243   1_545  S
Mg2230     O3132   2.296   1_545  S
C2232      O2237   1.276       .  A
C2232      C2651   1.488       .  S
O2233      C2234   1.271       .  A
O2233     Mg3111   2.265       .  S
C2234      C2604   1.468       .  S
C2239      C2671   1.473       .  S
C2239      C2240   1.391       .  A
C2239      C2244   1.406       .  A
C2240      H2259   1.084       .  S
C2240      C2241   1.396       .  A
C2241      C2664   1.494       .  S
C2241      C2242   1.421       .  A
C2242      C2243   1.424       .  A
C2242      C2249   1.406       .  A
C2243      C2244   1.418       .  A
C2243      C2248   1.420       .  A
C2244      C2245   1.403       .  A
C2245      H2255   1.083       .  S
C2245      C2246   1.391       .  A
C2246      H2256   1.080       .  S
C2246      C2247   1.407       .  A
C2247      C2248   1.424       .  A
C2247      C2254   1.416       .  A
C2248      C2251   1.421       .  A
C2249      H2257   1.083       .  S
C2249      C2250   1.400       .  A
C2250      H2258   1.083       .  S
C2250      C2251   1.408       .  A
C2251      C2252   1.415       .  A
C2252      C2639   1.489       .  S
C2252      C2253   1.402       .  A
C2253      H2260   1.085       .  S
C2253      C2254   1.402       .  A
C2254      C2648   1.490       .  S
C2261      C2676   1.478       .  S
C2261      C2262   1.400       .  A
C2261      C2266   1.414       .  A
C2262      H2281   1.086       .  S
C2262      C2263   1.396       .  A
C2263      C2660   1.487       .  S
C2263      C2264   1.412       .  A
C2264      C2265   1.427       .  A
C2264      C2271   1.402       .  A
C2265      C2266   1.418       .  A
C2265      C2270   1.419       .  A
C2266      C2267   1.409       .  A
C2267      H2277   1.083       .  S
C2267      C2268   1.400       .  A
C2268      H2278   1.082       .  S
C2268      C2269   1.405       .  A
C2269      C2270   1.429       .  A
C2269      C2276   1.423       .  A
C2270      C2273   1.417       .  A
C2271      H2279   1.082       .  S
C2271      C2272   1.388       .  A
C2272      H2280   1.083       .  S
C2272      C2273   1.405       .  A
C2273      C2274   1.402       .  A
C2274      C2635   1.473       .  S
C2274      C2275   1.391       .  A
C2275      H2282   1.085       .  S
C2275      C2276   1.399       .  A
C2276      C2644   1.504       .  S
O2283     Mg2285   2.158       .  S
O2283     Mg2291   2.172       .  S
O2283      C2318   1.236       .  S
C2284      O2297   1.235       .  S
C2284      O2321   1.269       .  A
C2284      H2323   1.082       .  S
Mg2285     O2314   2.184       .  S
Mg2285     O2329   2.286       .  S
Mg2285     O3243   2.278   1_545  S
Mg2285     O2296   2.293       .  S
O2286     Mg2328   2.184       .  S
O2286     Mg2311   2.161       .  S
O2286      C2307   1.235       .  S
O2287      C2318   1.272       .  A
O2287     Mg2311   2.309       .  S
C2288      O2290   1.274       .  A
C2288      O2302   1.275       .  A
C2288      C2628   1.480       .  S
O2289      C2317   1.267       .  A
O2289     Mg2291   2.288       .  S
O2290     Mg2322   2.285       .  S
Mg2291     O2297   2.159       .  S
Mg2291     O2305   2.279       .  S
Mg2291     O2293   2.283       .  S
C2292      O2330   1.272       .  A
C2292      O2298   1.275       .  A
C2292      C2632   1.475       .  S
O2293      C2300   1.272       .  A
H2294      C2307   1.080       .  S
C2295      O2309   1.234       .  S
C2295      O2310   1.268       .  A
C2295      H2320   1.080       .  S
O2296      C2319   1.267       .  A
O2297     Mg2311   2.154       .  S
O2298     Mg2328   2.306       .  S
C2299      O2312   1.273       .  A
C2299      O2304   1.276       .  A
C2299      C2579   1.464       .  S
C2300      O2327   1.278       .  A
Mg2301     O2308   2.155       .  S
Mg2301     O2309   2.172       .  S
Mg2301     O2302   2.296       .  S
Mg2301     O2303   2.292       .  S
Mg2301     O2330   2.278       .  S
O2303      C2307   1.269       .  A
O2305      C2324   1.271       .  A
O2306      C2326   1.272       .  A
O2306     Mg3240   2.276       .  S
O2308     Mg2322   2.168       .  S
O2308      C2319   1.234       .  S
O2309     Mg2328   2.150       .  S
O2310     Mg2322   2.292       .  S
Mg2311     O2327   2.318       .  S
H2313      C2318   1.079       .  S
O2314     Mg2322   2.146       .  S
O2314      C2317   1.234       .  S
H2315      C2317   1.082   1_565  S
H2316      C2319   1.080       .  S
O2321     Mg2328   2.300       .  S
Mg2322     O3224   2.299   1_545  S
C2324      O2329   1.271       .  A
C2324      C3541   1.474   1_545  S
O2325      C2326   1.269       .  A
O2325     Mg3203   2.271       .  S
C2326      C2606   1.458       .  S
O2331     Mg2333   2.137       .  S
O2331     Mg2339   2.144       .  S
O2331      C2366   1.235       .  S
C2332      O2345   1.233       .  S
C2332      O2369   1.266       .  A
C2332      H2371   1.081       .  S
Mg2333     O2362   2.171       .  S
Mg2333     O2377   2.330       .  S
Mg2333     O2373   2.256       .  S
Mg2333     O2344   2.293       .  S
O2334     Mg2376   2.156       .  S
O2334     Mg2359   2.127       .  S
O2334      C2355   1.236       .  S
O2335      C2366   1.269       .  A
O2335     Mg2359   2.301       .  S
C2336      O2338   1.274       .  A
C2336      O2350   1.269       .  A
C2336      C2615   1.466       .  S
O2337      C2365   1.273       .  A
O2337     Mg2339   2.302       .  S
O2338     Mg2370   2.286       .  S
Mg2339     O2345   2.123       .  S
Mg2339     O2353   2.198       .  S
Mg2339     O2341   2.267       .  S
C2340      O2378   1.270       .  A
C2340      O2346   1.272       .  A
C2340      C2620   1.470       .  S
O2341      C2348   1.266       .  A
H2342      C2355   1.082   1_455  S
C2343      O2357   1.235       .  S
C2343      O2358   1.270       .  A
C2343      H2368   1.081       .  S
O2344      C2367   1.267       .  A
O2345     Mg2359   2.156       .  S
O2346     Mg2376   2.290       .  S
C2347      O2360   1.274       .  A
C2347      O2352   1.273       .  A
C2347      C2580   1.465       .  S
Mg2349     O2356   2.152       .  S
Mg2349     O2357   2.151       .  S
Mg2349     O2350   2.277       .  S
Mg2349     O2351   2.293       .  S
Mg2349     O2378   2.252       .  S
O2351      C2355   1.270       .  A
O2353      C2372   1.261       .  A
O2354      C2374   1.276       .  A
O2354     Mg2370   2.318       .  S
O2356     Mg2370   2.157       .  S
O2356      C2367   1.232       .  S
O2357     Mg2376   2.151       .  S
O2358     Mg2370   2.305       .  S
H2361      C2366   1.081       .  S
O2362     Mg2370   2.159       .  S
O2362      C2365   1.239       .  S
H2363      C2365   1.080       .  S
H2364      C2367   1.081       .  S
O2369     Mg2376   2.282       .  S
C2372      O2377   1.278       .  A
C2372      C2612   1.470       .  S
O2373      C2374   1.273       .  A
C2374      C2568   1.464       .  S
C2379      C2679   1.477       .  S
C2379      C2380   1.395       .  A
C2379      C2384   1.411       .  A
C2380      H2399   1.086       .  S
C2380      C2381   1.397       .  A
C2381      C2667   1.481       .  S
C2381      C2382   1.417       .  A
C2382      C2383   1.420       .  A
C2382      C2389   1.405       .  A
C2383      C2384   1.418       .  A
C2383      C2388   1.417       .  A
C2384      C2385   1.406       .  A
C2385      H2395   1.083       .  S
C2385      C2386   1.398       .  A
C2386      H2396   1.083       .  S
C2386      C2387   1.406       .  A
C2387      C2388   1.420       .  A
C2387      C2394   1.413       .  A
C2388      C2391   1.420       .  A
C2389      H2397   1.080       .  S
C2389      C2390   1.396       .  A
C2390      H2398   1.080       .  S
C2390      C2391   1.408       .  A
C2391      C2392   1.419       .  A
C2392      C2611   1.483       .  S
C2392      C2393   1.398       .  A
C2393      H2400   1.086       .  S
C2393      C2394   1.395       .  A
C2394      C2624   1.481       .  S
C2401      C2740   1.486       .  S
C2401      C2402   1.399       .  A
C2401      C2406   1.418       .  A
C2402      H2421   1.086       .  S
C2402      C2403   1.396       .  A
C2403      C2704   1.483       .  S
C2403      C2404   1.411       .  A
C2404      C2405   1.424       .  A
C2404      C2411   1.404       .  A
C2405      C2406   1.422       .  A
C2406      C2407   1.407       .  A
C2407      H2417   1.082       .  S
C2408      H2418   1.082       .  S
C2408      C2409   1.408       .  A
C2409      C2410   1.423       .  A
C2409      C2416   1.421       .  A
C2410      C2413   1.421       .  A
C2411      H2419   1.081       .  S
C2412      H2420   1.083       .  S
C2412      C2413   1.403       .  A
C2413      C2414   1.408       .  A
C2414      C2619   1.481       .  S
C2414      C2415   1.398       .  A
C2415      H2422   1.085       .  S
C2415      C2416   1.398       .  A
C2416      C2631   1.490       .  S
C2423      C2744   1.489       .  S
C2423      C2424   1.397       .  A
C2423      C2428   1.417       .  A
C2424      H2443   1.086       .  S
C2424      C2425   1.392       .  A
C2425      C2696   1.483       .  S
C2425      C2426   1.408       .  A
C2426      C2427   1.421       .  A
C2426      C2433   1.404       .  A
C2427      C2428   1.423       .  A
C2427      C2432   1.418       .  A
C2428      C2429   1.406       .  A
C2429      H2439   1.083       .  S
C2429      C2430   1.399       .  A
C2430      H2440   1.081       .  S
C2430      C2431   1.407       .  A
C2431      C2432   1.421       .  A
C2431      C2438   1.416       .  A
C2432      C2435   1.422       .  A
C2433      H2441   1.082       .  S
C2433      C2434   1.393       .  A
C2434      H2442   1.083       .  S
C2434      C2435   1.404       .  A
C2435      C2436   1.410       .  A
C2436      C2616   1.488       .  S
C2436      C2437   1.393       .  A
C2437      H2444   1.084       .  S
C2437      C2438   1.398       .  A
C2438      C2656   1.489       .  S
C2445      C2707   1.500       .  S
C2445      C2446   1.400       .  A
C2445      C2450   1.421       .  A
C2446      H2465   1.085       .  S
C2446      C2447   1.401       .  A
C2447      C2691   1.486       .  S
C2447      C2448   1.417       .  A
C2448      C2449   1.420       .  A
C2448      C2455   1.404       .  A
C2449      C2450   1.424       .  A
C2449      C3372   1.430       .  A
C2450      C2451   1.403       .  A
C2451      H2461   1.080       .  S
C2451      C3370   1.389       .  A
C2452      H2462   1.088       .  S
C2452      C3369   1.397   1_545  A
C2452      C2453   1.402       .  A
C2453      C2454   1.423       .  A
C2453      C2460   1.418       .  A
C2454      C3367   1.424       .  A
C2454      C2457   1.421       .  A
C2455      H2463   1.083       .  S
C2455      C3374   1.399       .  A
C2456      H2464   1.088       .  S
C2456      C3373   1.392       .  A
C2456      C2457   1.405       .  A
C2457      C2458   1.413       .  A
C2458      C2627   1.482       .  S
C2458      C2459   1.399       .  A
C2459      H2466   1.084       .  S
C2459      C2460   1.400       .  A
C2460      C2652   1.491       .  S
O2467     Mg2475   2.183   1_554  S
O2467      C2502   1.232       .  S
C2468      O2481   1.233       .  S
C2468      O2505   1.267       .  A
C2468      H2507   1.081       .  S
Mg2469     O2498   2.189   1_554  S
Mg2469     O2513   2.297       .  S
Mg2469     O2509   2.286       .  S
Mg2469     O2480   2.284       .  S
O2470     Mg2512   2.185   1_554  S
O2470     Mg2495   2.168       .  S
O2470      C2491   1.233       .  S
O2471      C3420   1.267   1_545  A
O2471     Mg2495   2.290       .  S
C2472      O2474   1.275       .  A
C2472      O3404   1.270       .  A
C2472      C3008   1.465       .  S
O2473     Mg2475   2.294       .  S
O2474     Mg2506   2.284       .  S
Mg2475     O3399   2.144       .  S
Mg2475     O2489   2.231       .  S
Mg2475     O2477   2.294   1_556  S
C2476      O2482   1.274       .  A
O2477      C3402   1.270       .  A
H2478      C2491   1.081       .  S
C2479      O2493   1.233       .  S
C2479      O3412   1.268       .  A
C2479      H2504   1.081       .  S
O2480      C2503   1.265       .  A
O2481     Mg3393   2.146   1_545  S
O2481     Mg2495   2.169   1_556  S
O2482     Mg2512   2.303       .  S
C2483      O2496   1.274       .  A
C2483      O2488   1.270       .  A
C2484      O3395   1.271       .  A
C2484      O2511   1.272   1_565  A
C2484      C2981   1.469       .  S
Mg2485     O3410   2.156   1_545  S
Mg2485     O2493   2.175   1_554  S
Mg2485     O2486   2.293   1_554  S
Mg2485     O2487   2.298   1_655  S
Mg2485     O2514   2.261       .  S
O2486      C3390   1.271       .  A
O2488     Mg2495   2.280   1_556  S
O2490      C2510   1.273       .  A
O2490     Mg2506   2.297   1_554  S
O2492     Mg3403   2.140       .  S
O2492     Mg2506   2.174   1_554  S
O2492      C2503   1.232       .  S
O2494      C3397   1.266       .  A
O2494     Mg2506   2.290       .  S
Mg2495     O2511   2.274       .  S
O2496     Mg2512   2.272       .  S
H2497      C2502   1.081       .  S
O2498     Mg2506   2.168       .  S
O2498      C2501   1.233       .  S
H2499      C2501   1.081       .  S
H2500      C2503   1.081       .  S
C2502      O3389   1.266       .  A
O2505     Mg2512   2.292       .  S
C2508      O2513   1.274       .  A
O2509      C2510   1.276       .  A
O2515     Mg2517   2.181       .  S
O2515     Mg2523   2.145       .  S
O2515      C2550   1.236       .  S
C2516      O2529   1.235       .  S
C2516      O2553   1.271       .  A
C2516      H2555   1.080       .  S
Mg2517     O2546   2.143       .  S
Mg2517     O2561   2.318       .  S
Mg2517     O2557   2.284       .  S
Mg2517     O2528   2.316       .  S
O2518     Mg2560   2.146       .  S
O2518     Mg2543   2.145       .  S
O2518      C2539   1.235       .  S
O2519      C2550   1.274       .  A
O2519     Mg2543   2.323       .  S
C2520      O2522   1.267       .  A
C2520      O2534   1.273       .  A
O2521      C2549   1.273       .  A
O2521     Mg2523   2.322       .  S
O2522     Mg2554   2.261       .  S
Mg2523     O2529   2.165       .  S
Mg2523     O2537   2.289       .  S
Mg2523     O2525   2.330       .  S
C2524      O2562   1.272       .  A
C2524      O2530   1.269       .  A
O2525      C2532   1.277       .  A
H2526      C2539   1.081       .  S
C2527      O2541   1.236       .  S
C2527      O2542   1.272       .  A
C2527      H2552   1.081       .  S
O2528      C2551   1.271       .  A
O2529     Mg2543   2.149       .  S
O2530     Mg2560   2.287       .  S
C2531      O2544   1.268       .  A
C2531      O2536   1.271       .  A
C2532      O2559   1.263       .  A
Mg2533     O2540   2.164       .  S
Mg2533     O2541   2.145       .  S
Mg2533     O2534   2.305       .  S
Mg2533     O2535   2.304       .  S
Mg2533     O2562   2.277       .  S
O2535      C2539   1.270       .  A
O2536     Mg2543   2.309       .  S
O2537      C2556   1.273       .  A
O2538      C2558   1.270       .  A
O2538     Mg2554   2.302       .  S
O2540     Mg2554   2.138       .  S
O2540      C2551   1.235       .  S
O2541     Mg2560   2.155       .  S
O2542     Mg2554   2.315       .  S
Mg2543     O2559   2.233       .  S
O2544     Mg2560   2.264       .  S
H2545      C2550   1.081       .  S
O2546     Mg2554   2.172       .  S
O2546      C2549   1.235       .  S
H2547      C2549   1.081       .  S
H2548      C2551   1.081       .  S
O2553     Mg2560   2.308       .  S
C2556      O2561   1.273       .  A
O2557      C2558   1.271       .  A
O2563     Mg2565   2.137       .  S
O2563     Mg2571   2.136       .  S
O2563      C2598   1.234       .  S
C2564      O2577   1.234       .  S
C2564      O2601   1.269       .  A
C2564      H2603   1.081       .  S
Mg2565     O2594   2.170       .  S
Mg2565     O2609   2.270       .  S
Mg2565     O2605   2.239       .  S
Mg2565     O2576   2.306       .  S
O2566     Mg2608   2.178       .  S
O2566     Mg2591   2.155       .  S
O2566      C2587   1.237       .  S
O2567      C2598   1.270       .  A
O2567     Mg2591   2.308       .  S
C2568      O2570   1.269       .  A
C2568      O2582   1.274       .  A
O2569      C2597   1.271       .  A
O2569     Mg2571   2.308       .  S
O2570     Mg2602   2.264       .  S
Mg2571     O2577   2.172       .  S
Mg2571     O2585   2.314       .  S
Mg2571     O2573   2.321       .  S
C2572      O2610   1.273       .  A
C2572      O2578   1.270       .  A
O2573      C2580   1.276       .  A
H2574      C2587   1.081       .  S
C2575      O2589   1.234       .  S
C2575      O2590   1.271       .  A
C2575      H2600   1.082       .  S
O2576      C2599   1.271       .  A
O2577     Mg2591   2.154       .  S
O2578     Mg2608   2.293       .  S
C2579      O2592   1.269       .  A
C2579      O2584   1.272       .  A
C2580      O2607   1.270       .  A
Mg2581     O2588   2.175       .  S
Mg2581     O2589   2.133       .  S
Mg2581     O2582   2.319       .  S
Mg2581     O2583   2.311       .  S
Mg2581     O2610   2.294       .  S
O2583      C2587   1.272       .  A
O2584     Mg2591   2.288       .  S
O2585      C2604   1.276       .  A
O2586      C2606   1.274       .  A
O2586     Mg2602   2.302       .  S
O2588     Mg2602   2.151       .  S
O2588      C2599   1.236       .  S
O2589     Mg2608   2.154       .  S
O2590     Mg2602   2.317       .  S
Mg2591     O2607   2.265       .  S
O2592     Mg2608   2.274       .  S
H2593      C2598   1.081       .  S
O2594     Mg2602   2.143       .  S
O2594      C2597   1.236       .  S
H2595      C2597   1.082       .  S
H2596      C2599   1.081       .  S
O2601     Mg2608   2.300       .  S
C2604      O2609   1.266       .  A
O2605      C2606   1.263       .  A
C2611      C2612   1.336       .  D
C2611      H2613   1.087       .  S
C2612      H2614   1.087       .  S
C2615      C2616   1.343       .  D
C2615      H2617   1.086       .  S
C2616      H2618   1.087       .  S
C2619      C2620   1.343       .  D
C2619      H2621   1.087       .  S
C2620      H2622   1.088   1_655  S
C2623      C3242   1.477       .  S
C2623      C2624   1.352       .  D
C2623      H3543   1.086       .  S
C2624      H2626   1.087       .  S
H2625      C3541   1.087       .  S
C2627      C2628   1.346       .  D
C2627      H2629   1.090       .  S
C2628      H2630   1.091       .  S
C2631      C2632   1.350       .  D
C2631      H2633   1.086       .  S
C2632      H2634   1.087       .  S
C2635      C2636   1.334       .  D
C2635      H2637   1.087       .  S
C2639      C2640   1.343       .  D
C2639      H2641   1.086       .  S
C2643      C3114   1.474       .  S
C2643      C2644   1.355       .  D
C2643      H3563   1.088       .  S
C2644      H2646   1.085       .  S
H2645      C3561   1.088       .  S
C2647      C2648   1.343       .  D
C2647      H2649   1.087       .  S
C2648      H2650   1.088       .  S
C2651      C2652   1.348       .  D
C2651      H2653   1.078   1_545  S
C2652      H2654   1.079       .  S
C2655      C2656   1.348       .  D
C2655      H2657   1.089       .  S
C2656      H2658   1.085       .  S
C2659      C2660   1.347       .  D
C2659      H2661   1.087       .  S
C2660      H2662   1.087       .  S
C2663      C2664   1.349       .  D
C2663      H2665   1.086       .  S
C2664      H2666   1.086       .  S
C2667      C2668   1.337       .  D
C2667      H2669   1.087       .  S
C2668      H2670   1.087       .  S
C2671      C2672   1.336       .  D
C2671      H2673   1.086       .  S
C2672      H2674   1.089       .  S
C2675      C2676   1.341       .  D
C2675      H2677   1.088       .  S
C2676      H2678   1.086       .  S
C2679      C2680   1.349       .  D
C2679      H2681   1.086       .  S
C2680      H2682   1.087       .  S
C2683      C2684   1.352       .  D
C2683      H2685   1.085       .  S
C2684      H2686   1.088       .  S
C2687      C2688   1.336       .  D
C2687      H2689   1.086       .  S
C2688      H2690   1.089       .  S
C2691      C2692   1.345       .  D
C2691      H2693   1.086       .  S
C2692      H2694   1.088       .  S
C2695      C2696   1.347       .  D
C2695      H2697   1.087       .  S
C2696      H2698   1.085       .  S
C2699      C2700   1.343       .  D
C2699      H2701   1.087       .  S
C2700      H2702   1.087       .  S
C2703      C2704   1.349       .  D
C2703      H2705   1.087       .  S
C2704      H2706   1.087       .  S
C2707      C2708   1.349       .  D
C2707      H2709   1.085       .  S
C2708      H2710   1.087       .  S
C2711      C2712   1.352       .  D
C2712      H2714   1.086       .  S
C2715      C2716   1.347       .  D
C2715      H2717   1.086       .  S
C2716      H2718   1.087       .  S
C2719      C2720   1.348       .  D
C2719      H2721   1.087       .  S
C2720      H2722   1.086       .  S
C2723      C2724   1.352       .  D
C2723      H2725   1.086   1_545  S
C2724      C2912   1.469   1_545  S
C2724      H2726   1.088       .  S
C2727      C2728   1.337       .  D
C2727      H2729   1.087       .  S
C2728      H2730   1.088       .  S
C2731      C2732   1.348       .  D
C2731      H2733   1.086       .  S
C2732      H2734   1.086       .  S
C2735      C2888   1.475       .  S
C2735      C2736   1.339   1_565  D
C2735      H3655   1.087   1_565  S
C2736      H2738   1.087   1_545  S
H2737      C3653   1.087       .  S
C2739      C2740   1.346       .  D
C2739      H2741   1.087       .  S
C2740      H2742   1.087       .  S
C2743      C2744   1.349       .  D
C2743      H2745   1.087       .  S
C2744      H2746   1.086       .  S
C2747      C2748   1.355       .  D
C2747      H2749   1.088       .  S
C2748      H2750   1.085   1_655  S
C2751      C2752   1.341       .  D
C2751      H2753   1.087       .  S
C2752      H2754   1.087       .  S
O2755     Mg2757   2.140       .  S
O2755     Mg2763   2.171       .  S
O2755      C2790   1.234       .  S
C2756      O2769   1.234       .  S
C2756      O2793   1.269       .  A
C2756      H2795   1.081       .  S
Mg2757     O2786   2.159       .  S
Mg2757     O2801   2.327       .  S
Mg2757     O2768   2.297       .  S
O2758     Mg2800   2.164       .  S
O2758     Mg2783   2.143       .  S
O2758      C2779   1.233       .  S
O2759      C2790   1.267       .  A
O2759     Mg2783   2.282       .  S
C2760      O2774   1.270       .  A
O2761      C2789   1.267       .  A
O2761     Mg2763   2.292       .  S
Mg2763     O2769   2.161       .  S
Mg2763     O2777   2.272       .  S
Mg2763     O2765   2.307       .  S
C2764      O2802   1.268       .  A
C2764      O2770   1.282       .  A
C2764      C3670   1.477       .  S
O2765      C2772   1.273       .  A
H2766      C2779   1.081       .  S
C2767      O2781   1.234       .  S
C2767      O2782   1.268       .  A
C2767      H2792   1.082       .  S
O2768      C2791   1.269       .  A
O2769     Mg2783   2.174       .  S
O2770     Mg2800   2.341       .  S
C2771      O2784   1.278       .  A
C2771      O2776   1.269       .  A
C2771      C3450   1.466       .  S
C2772      O2799   1.267       .  A
C2772      C3661   1.463       .  S
Mg2773     O2780   2.148       .  S
Mg2773     O2781   2.174       .  S
Mg2773     O2774   2.289       .  S
Mg2773     O2775   2.290       .  S
Mg2773     O2802   2.229       .  S
O2775      C2779   1.267       .  A
O2776     Mg2783   2.274       .  S
O2777      C2796   1.274       .  A
O2778      C2798   1.268       .  A
O2780     Mg2794   2.170       .  S
O2780      C2791   1.235       .  S
O2781     Mg2800   2.149       .  S
O2782     Mg2794   2.289       .  S
Mg2783     O2799   2.221       .  S
O2784     Mg2800   2.295       .  S
H2785      C2790   1.081       .  S
O2786     Mg2794   2.142       .  S
O2786      C2789   1.233       .  S
H2787      C2789   1.081       .  S
H2788      C2791   1.081       .  S
O2793     Mg2800   2.297       .  S
C2796      O2801   1.281       .  A
C2796      C3657   1.485       .  S
O2797      C2798   1.273       .  A
C2798      C3438   1.459       .  S
C2803      C3669   1.488       .  S
C2803      C2804   1.402       .  A
C2803      C2808   1.421       .  A
C2804      H2823   1.086       .  S
C2804      C2805   1.399       .  A
C2805      C3654   1.484       .  S
C2805      C2806   1.407       .  A
C2806      C2807   1.419       .  A
C2806      C2813   1.404       .  A
C2807      C2808   1.421       .  A
C2807      C2812   1.415       .  A
C2808      C2809   1.410       .  A
C2809      H2819   1.079       .  S
C2809      C2810   1.398       .  A
C2810      H2820   1.082       .  S
C2810      C2811   1.403       .  A
C2811      C2812   1.418       .  A
C2811      C2818   1.414       .  A
C2812      C2815   1.417       .  A
C2813      H2821   1.083       .  S
C2813      C2814   1.395       .  A
C2814      H2822   1.083       .  S
C2814      C2815   1.406       .  A
C2815      C2816   1.409       .  A
C2816      C3649   1.471       .  S
C2816      C2817   1.394       .  A
C2817      H2824   1.086       .  S
C2817      C2818   1.396       .  A
C2818      C3645   1.478       .  S
C2825      C3666   1.492       .  S
C2825      C2826   1.392       .  A
C2825      C2830   1.415       .  A
C2826      H2845   1.086       .  S
C2826      C2827   1.392       .  A
C2827      C3641   1.487       .  S
C2827      C2828   1.414       .  A
C2828      C2829   1.424       .  A
C2828      C2835   1.405       .  A
C2829      C2830   1.426       .  A
C2829      C2834   1.421       .  A
C2830      C2831   1.404       .  A
C2831      H2841   1.082   1_655  S
C2831      C2832   1.395       .  A
C2832      H2842   1.082   1_655  S
C2832      C2833   1.406       .  A
C2833      C2834   1.423       .  A
C2833      C2840   1.414       .  A
C2834      C2837   1.424       .  A
C2835      H2843   1.083       .  S
C2835      C2836   1.398       .  A
C2836      H2844   1.083       .  S
C2836      C2837   1.407       .  A
C2837      C2838   1.418       .  A
C2838      C3638   1.489       .  S
C2838      C2839   1.400       .  A
C2839      H2846   1.086       .  S
C2839      C2840   1.400       .  A
C2840      C3633   1.487       .  S
O2847     Mg2849   2.150       .  S
O2847     Mg2855   2.144       .  S
O2847      C2882   1.232       .  S
C2848      O2861   1.238       .  S
C2848      O2885   1.272       .  A
C2848      H2887   1.082       .  S
Mg2849     O2878   2.147       .  S
Mg2849     O2893   2.285       .  S
Mg2849     O2860   2.299       .  S
O2850     Mg2892   2.150       .  S
O2850     Mg2875   2.136       .  S
O2850      C2871   1.235       .  S
O2851      C2882   1.266       .  A
O2851     Mg2875   2.290       .  S
C2852      O2854   1.272       .  A
C2852      O2866   1.275       .  A
C2852      C3626   1.468       .  S
O2853      C2881   1.272       .  A
O2853     Mg2855   2.314       .  S
O2854     Mg2886   2.263       .  S
Mg2855     O2861   2.178       .  S
Mg2855     O2869   2.313       .  S
Mg2855     O2857   2.342       .  S
C2856      O2894   1.274       .  A
C2856      O2862   1.272       .  A
C2856      C3621   1.482       .  S
O2857      C2864   1.280       .  A
H2858      C2871   1.081       .  S
C2859      O2873   1.233       .  S
C2859      O2874   1.266       .  A
C2859      H2884   1.081       .  S
O2860      C2883   1.272       .  A
O2861     Mg2875   2.190       .  S
O2862     Mg2892   2.279       .  S
C2863      O2876   1.270       .  A
C2863      O2868   1.275       .  A
C2863      C3476   1.473       .  S
Mg2865     O2872   2.165       .  S
Mg2865     O2873   2.152       .  S
Mg2865     O2866   2.308       .  S
Mg2865     O2867   2.307       .  S
Mg2865     O2894   2.297       .  S
O2867      C2871   1.271       .  A
O2869      C2888   1.278       .  A
O2870      C2890   1.273       .  A
O2872     Mg2886   2.190       .  S
O2872      C2883   1.238       .  S
O2873     Mg2892   2.144       .  S
O2874     Mg2886   2.288       .  S
H2877      C2882   1.081       .  S
O2878     Mg2886   2.140       .  S
O2878      C2881   1.236       .  S
H2879      C2881   1.081       .  S
H2880      C2883   1.081       .  S
O2885     Mg2892   2.302       .  S
C2888      O2893   1.269       .  A
O2889      C2890   1.267       .  A
C2890      C3449   1.462       .  S
O2895     Mg2897   2.159       .  S
O2895     Mg2903   2.145       .  S
O2895      C2930   1.233       .  S
C2896      O2909   1.235       .  S
C2896      O2933   1.271       .  A
C2896      H2935   1.083       .  S
Mg2897     O2926   2.148       .  S
Mg2897     O2941   2.284       .  S
Mg2897     O2937   2.252       .  S
Mg2897     O2908   2.300       .  S
O2898     Mg2940   2.153       .  S
O2898     Mg2923   2.139       .  S
O2898      C2919   1.237       .  S
O2899      C2930   1.268       .  A
O2899     Mg2923   2.300       .  S
C2900      O2902   1.277       .  A
C2900      O2914   1.264       .  A
C2900      C3613   1.459       .  S
O2901      C2929   1.273       .  A
O2901     Mg2903   2.317       .  S
O2902     Mg2934   2.306       .  S
Mg2903     O2909   2.174       .  S
Mg2903     O2917   2.288       .  S
Mg2903     O2905   2.293       .  S
C2904      O2942   1.267       .  A
C2904      O2910   1.272       .  A
C2904      C3610   1.482       .  S
O2905      C2912   1.272       .  A
H2906      C2919   1.082       .  S
C2907      O2921   1.233       .  S
C2907      O2922   1.268       .  A
C2907      H2932   1.081       .  S
O2908      C2931   1.271       .  A
O2909     Mg2923   2.179       .  S
O2910     Mg2940   2.296       .  S
C2911      O2924   1.270       .  A
C2911      O2916   1.272       .  A
C2911      C3442   1.461       .  S
Mg2913     O2920   2.162       .  S
Mg2913     O2921   2.140       .  S
Mg2913     O2914   2.239       .  S
Mg2913     O2915   2.304       .  S
Mg2913     O2942   2.266       .  S
O2915      C2919   1.272       .  A
O2917      C2936   1.270       .  A
O2918      C2938   1.280       .  A
O2918     Mg2934   2.334       .  S
O2920     Mg2934   2.183       .  S
O2920      C2931   1.236       .  S
O2921     Mg2940   2.138       .  S
O2922     Mg2934   2.299       .  S
H2925      C2930   1.081       .  S
O2926     Mg2934   2.144       .  S
O2926      C2929   1.236       .  S
H2927      C2929   1.082       .  S
H2928      C2931   1.082       .  S
O2933     Mg2940   2.309       .  S
C2936      O2941   1.267       .  A
C2936      C3617   1.477       .  S
O2937      C2938   1.268       .  A
C2938      C3474   1.467       .  S
C2943      C3630   1.492       .  S
C2943      C2944   1.404       .  A
C2943      C2948   1.424       .  A
C2944      H2963   1.085       .  S
C2944      C2945   1.395       .  A
C2945      C3618   1.484       .  S
C2945      C2946   1.408       .  A
C2946      C2947   1.424       .  A
C2946      C2953   1.403       .  A
C2947      C2948   1.421       .  A
C2947      C2952   1.422       .  A
C2948      C2949   1.412       .  A
C2949      H2959   1.081       .  S
C2949      C2950   1.403       .  A
C2950      H2960   1.083       .  S
C2950      C2951   1.404       .  A
C2951      C2952   1.427       .  A
C2951      C2958   1.425       .  A
C2952      C2955   1.419       .  A
C2953      H2961   1.083       .  S
C2953      C2954   1.388       .  A
C2954      H2962   1.082       .  S
C2954      C2955   1.404       .  A
C2955      C2956   1.404       .  A
C2956      C3605   1.469       .  S
C2956      C2957   1.387       .  A
C2957      H2964   1.086       .  S
C2957      C2958   1.393       .  A
C2958      C3601   1.491       .  S
O2965     Mg2967   2.155       .  S
O2965      C3000   1.236       .  S
C2966      O2979   1.235       .  S
C2966      O3003   1.270   1_556  A
C2966      H3005   1.081       .  S
Mg2967     O3007   2.272       .  S
Mg2967     O2978   2.305       .  S
O2968     Mg2993   2.145   1_554  S
O2968      C2989   1.235       .  S
O2969      C3000   1.271       .  A
O2969     Mg2993   2.306       .  S
C2970      O2972   1.275       .  A
C2970      O2984   1.277       .  A
C2970      C3637   1.488       .  S
O2971      C2999   1.271       .  A
O2971     Mg2973   2.306       .  S
Mg2973     O2979   2.147       .  S
Mg2973     O2987   2.277       .  S
Mg2973     O2975   2.337       .  S
C2974      O3012   1.272       .  A
C2974      O2980   1.267       .  A
C2974      C3650   1.469       .  S
O2975      C2982   1.279       .  A
H2976      C2989   1.082   1_556  S
C2977      O2991   1.235   1_565  S
C2977      O2992   1.270       .  A
C2977      H3002   1.082       .  S
O2978      C3001   1.270   1_556  A
C2981      O2994   1.268       .  A
C2981      O2986   1.277   1_554  A
C2982      O3009   1.273       .  A
C2982      C3593   1.487       .  S
Mg2983     O2990   2.148       .  S
Mg2983     O2984   2.328       .  S
Mg2983     O2985   2.299       .  S
Mg2983     O3012   2.287       .  S
O2985      C2989   1.269       .  A
O2987      C3006   1.271       .  A
O2988      C3008   1.276   1_554  A
O2990      C3001   1.235       .  S
O2991     Mg3010   2.153   1_545  S
O2992     Mg3004   2.301       .  S
O2994     Mg3010   2.274       .  S
H2995      C3000   1.081       .  S
O2996     Mg3004   2.175   1_556  S
O2996      C2999   1.235       .  S
H2997      C2999   1.081   1_554  S
H2998      C3001   1.081       .  S
O3003     Mg3010   2.299       .  S
C3006      O3011   1.271       .  A
C3006      C3598   1.470       .  S
O3007      C3008   1.268       .  A
O3013     Mg3015   2.145       .  S
O3013     Mg3021   2.143       .  S
O3013      C3048   1.237       .  S
C3014      O3027   1.233       .  S
C3014      O3051   1.269   1_556  A
C3014      H3053   1.081       .  S
Mg3015     O3044   2.160       .  S
Mg3015     O3059   2.241       .  S
Mg3015     O3055   2.233       .  S
Mg3015     O3026   2.290       .  S
O3016     Mg3058   2.164       .  S
O3016     Mg3041   2.140   1_554  S
O3016      C3037   1.237       .  S
O3017      C3048   1.274       .  A
O3017     Mg3041   2.323       .  S
C3018      O3020   1.277       .  A
C3018      O3032   1.268       .  A
C3018      C3646   1.475       .  S
O3019      C3047   1.272       .  A
O3019     Mg3021   2.308       .  S
O3020     Mg3052   2.293       .  S
Mg3021     O3027   2.157       .  S
Mg3021     O3035   2.279       .  S
Mg3021     O3023   2.283       .  S
C3022      O3060   1.264       .  A
C3022      O3028   1.268       .  A
C3022      C3606   1.456       .  S
O3023      C3030   1.268       .  A
H3024      C3037   1.082       .  S
C3025      O3039   1.236       .  S
C3025      O3040   1.271       .  A
C3025      H3050   1.081       .  S
O3026      C3049   1.266   1_556  A
O3027     Mg3041   2.133       .  S
O3028     Mg3058   2.254       .  S
C3029      O3042   1.267       .  A
C3029      O3034   1.278   1_554  A
C3029      C3428   1.467       .  S
C3030      O3057   1.272       .  A
C3030      C3586   1.471       .  S
Mg3031     O3038   2.124       .  S
Mg3031     O3039   2.156       .  S
Mg3031     O3032   2.275       .  S
Mg3031     O3033   2.295       .  S
Mg3031     O3060   2.230       .  S
O3033      C3037   1.271       .  A
O3034     Mg3041   2.339       .  S
O3035      C3054   1.269       .  A
O3036      C3056   1.279   1_554  A
O3036     Mg3052   2.329       .  S
O3038     Mg3052   2.130       .  S
O3038      C3049   1.233       .  S
O3039     Mg3058   2.138       .  S
O3040     Mg3052   2.306       .  S
Mg3041     O3057   2.264       .  S
O3042     Mg3058   2.253       .  S
H3043      C3048   1.082       .  S
O3044     Mg3052   2.145   1_556  S
O3044      C3047   1.237       .  S
H3045      C3047   1.081       .  S
H3046      C3049   1.081       .  S
O3051     Mg3058   2.306       .  S
C3054      O3059   1.264       .  A
C3054      C3590   1.461       .  S
O3055      C3056   1.265       .  A
C3056      C3401   1.458       .  S
O3061     Mg3063   2.174       .  S
O3061      C3096   1.238       .  S
C3062      O3075   1.235       .  S
C3062      O3099   1.272   1_554  A
C3062      H3101   1.081       .  S
Mg3063     O3103   2.316       .  S
Mg3063     O3074   2.300       .  S
O3064     Mg3089   2.154   1_556  S
O3064      C3085   1.234       .  S
O3065      C3096   1.273       .  A
O3065     Mg3089   2.311       .  S
C3066      O3068   1.269       .  A
C3066      O3080   1.271       .  A
C3066      C3577   1.478       .  S
O3067      C3095   1.267       .  A
O3067     Mg3069   2.298       .  S
Mg3069     O3075   2.169       .  S
Mg3069     O3083   2.279       .  S
Mg3069     O3071   2.327       .  S
C3070      O3108   1.267       .  A
C3070      O3076   1.281       .  A
C3070      C3581   1.474       .  S
O3071      C3078   1.275       .  A
H3072      C3085   1.081   1_554  S
C3073      O3087   1.237       .  S
C3073      O3088   1.271       .  A
C3073      H3098   1.080       .  S
O3074      C3097   1.268   1_554  A
C3077      O3090   1.276       .  A
C3077      O3082   1.268   1_556  A
C3078      O3105   1.268   1_655  A
C3078      C3634   1.486       .  S
Mg3079     O3086   2.148       .  S
Mg3079     O3080   2.281       .  S
Mg3079     O3081   2.290       .  S
Mg3079     O3108   2.236       .  S
O3081      C3085   1.267       .  A
O3083      C3102   1.273       .  A
O3084      C3104   1.269   1_556  A
O3086      C3097   1.233       .  S
O3087     Mg3106   2.147   1_655  S
O3088     Mg3100   2.302       .  S
O3090     Mg3106   2.295       .  S
H3091      C3096   1.082       .  S
O3092     Mg3100   2.166   1_554  S
O3092      C3095   1.233       .  S
H3093      C3095   1.082       .  S
H3094      C3097   1.081       .  S
O3099     Mg3106   2.317   1_655  S
C3102      O3107   1.278       .  A
C3102      C3602   1.476       .  S
O3103      C3104   1.279       .  A
O3109     Mg3111   2.137       .  S
O3109     Mg3117   2.133       .  S
O3109      C3144   1.239       .  S
C3110      O3123   1.235       .  S
C3110      O3147   1.270       .  A
C3110      H3149   1.081       .  S
Mg3111     O3140   2.164       .  S
Mg3111     O3155   2.291       .  S
Mg3111     O3122   2.302       .  S
O3112     Mg3154   2.170       .  S
O3112     Mg3137   2.181       .  S
O3112      C3133   1.238       .  S
O3113      C3144   1.278       .  A
O3113     Mg3137   2.349       .  S
C3114      O3128   1.279       .  A
O3115      C3143   1.272       .  A
O3115     Mg3117   2.305       .  S
Mg3117     O3123   2.186       .  S
Mg3117     O3131   2.314       .  S
Mg3117     O3119   2.235       .  S
C3118      O3156   1.277       .  A
C3118      O3124   1.270       .  A
C3118      C3565   1.483       .  S
O3119      C3126   1.257       .  A
H3120      C3133   1.082       .  S
C3121      O3135   1.231       .  S
C3121      O3136   1.264       .  A
C3121      H3146   1.083       .  S
O3122      C3145   1.270       .  A
O3123     Mg3137   2.170       .  S
O3124     Mg3154   2.292       .  S
C3125      O3138   1.265       .  A
C3125      O3130   1.281       .  A
C3125      C3490   1.467       .  S
C3126      O3153   1.272       .  A
C3126      C3573   1.478       .  S
Mg3127     O3134   2.188       .  S
Mg3127     O3135   2.131       .  S
Mg3127     O3128   2.349       .  S
Mg3127     O3129   2.332       .  S
Mg3127     O3156   2.324       .  S
O3129      C3133   1.276       .  A
O3130     Mg3137   2.351       .  S
O3131      C3150   1.272       .  A
O3132      C3152   1.272       .  A
O3134     Mg3148   2.194       .  S
O3134      C3145   1.235       .  S
O3135     Mg3154   2.134       .  S
O3136     Mg3148   2.280       .  S
Mg3137     O3153   2.380       .  S
O3138     Mg3154   2.224       .  S
H3139      C3144   1.081       .  S
O3140     Mg3148   2.142       .  S
O3140      C3143   1.238       .  S
H3141      C3143   1.081       .  S
H3142      C3145   1.082       .  S
O3147     Mg3154   2.303       .  S
C3150      O3155   1.271       .  A
C3150      C3569   1.469       .  S
O3151      C3152   1.272       .  A
C3152      C3522   1.468       .  S
C3157      C3589   1.481       .  S
C3157      C3158   1.391       .  A
C3157      C3162   1.408       .  A
C3158      H3177   1.084       .  S
C3158      C3159   1.395       .  A
C3159      C3582   1.498       .  S
C3159      C3160   1.424       .  A
C3160      C3161   1.427       .  A
C3160      C3167   1.407       .  A
C3161      C3162   1.422       .  A
C3161      C3166   1.423       .  A
C3162      C3163   1.404       .  A
C3163      H3173   1.083       .  S
C3163      C3164   1.393       .  A
C3164      H3174   1.083       .  S
C3164      C3165   1.405       .  A
C3165      C3166   1.424       .  A
C3165      C3172   1.413       .  A
C3166      C3169   1.422       .  A
C3167      H3175   1.083       .  S
C3167      C3168   1.404       .  A
C3168      H3176   1.083       .  S
C3168      C3169   1.409       .  A
C3169      C3170   1.422       .  A
C3170      C3557   1.493       .  S
C3170      C3171   1.404       .  A
C3171      H3178   1.085       .  S
C3171      C3172   1.401       .  A
C3172      C3566   1.491       .  S
C3179      C3594   1.488       .  S
C3179      C3180   1.400       .  A
C3179      C3184   1.418       .  A
C3180      H3199   1.086       .  S
C3180      C3181   1.399       .  A
C3181      C3578   1.485       .  S
C3181      C3182   1.411       .  A
C3182      C3183   1.423       .  A
C3182      C3189   1.405       .  A
C3183      C3184   1.422       .  A
C3183      C3188   1.421       .  A
C3184      C3185   1.407       .  A
C3185      H3195   1.083       .  S
C3185      C3186   1.400       .  A
C3186      H3196   1.082       .  S
C3186      C3187   1.407       .  A
C3187      C3188   1.424       .  A
C3187      C3194   1.420       .  A
C3188      C3191   1.421       .  A
C3189      H3197   1.082       .  S
C3189      C3190   1.389       .  A
C3190      H3198   1.083       .  S
C3190      C3191   1.402       .  A
C3191      C3192   1.407       .  A
C3192      C3553   1.483       .  S
C3192      C3193   1.391       .  A
C3193      H3200   1.084       .  S
C3193      C3194   1.397       .  A
C3194      C3562   1.492       .  S
O3201     Mg3203   2.152       .  S
O3201     Mg3209   2.177       .  S
O3201      C3236   1.235       .  S
C3202      O3215   1.236       .  S
C3202      O3239   1.271       .  A
C3202      H3241   1.082       .  S
Mg3203     O3232   2.183       .  S
Mg3203     O3247   2.251       .  S
Mg3203     O3214   2.291       .  S
O3204     Mg3246   2.181       .  S
O3204     Mg3229   2.172       .  S
O3204      C3225   1.234       .  S
O3205      C3236   1.270       .  A
O3205     Mg3229   2.303       .  S
C3206      O3208   1.272       .  A
C3206      O3220   1.280       .  A
C3206      C3546   1.485       .  S
O3207      C3235   1.268       .  A
O3207     Mg3209   2.293       .  S
O3208     Mg3240   2.274       .  S
Mg3209     O3215   2.172       .  S
Mg3209     O3223   2.310       .  S
Mg3209     O3211   2.312       .  S
C3210      O3248   1.274       .  A
C3210      O3216   1.276       .  A
C3210      C3550   1.474       .  S
O3211      C3218   1.276       .  A
H3212      C3225   1.081       .  S
C3213      O3227   1.233       .  S
C3213      O3228   1.266       .  A
C3213      H3238   1.081       .  S
O3214      C3237   1.267       .  A
O3215     Mg3229   2.158       .  S
O3216     Mg3246   2.303       .  S
C3217      O3230   1.272       .  A
C3217      O3222   1.276       .  A
C3217      C3497   1.464       .  S
C3218      O3245   1.280       .  A
Mg3219     O3226   2.150       .  S
Mg3219     O3227   2.187       .  S
Mg3219     O3220   2.334       .  S
Mg3219     O3221   2.300       .  S
Mg3219     O3248   2.282       .  S
O3221      C3225   1.269       .  A
O3223      C3242   1.275       .  A
O3224      C3244   1.276       .  A
O3226     Mg3240   2.174       .  S
O3226      C3237   1.234       .  S
O3227     Mg3246   2.162       .  S
O3228     Mg3240   2.287       .  S
Mg3229     O3245   2.326       .  S
H3231      C3236   1.081       .  S
O3232     Mg3240   2.146       .  S
O3232      C3235   1.234       .  S
H3233      C3235   1.081       .  S
H3234      C3237   1.081       .  S
O3239     Mg3246   2.306       .  S
C3242      O3247   1.268       .  A
O3243      C3244   1.272       .  A
C3244      C3524   1.465       .  S
O3249     Mg3251   2.150       .  S
O3249     Mg3257   2.146       .  S
O3249      C3284   1.232       .  S
C3250      O3263   1.233       .  S
C3250      O3287   1.266       .  A
C3250      H3289   1.081       .  S
Mg3251     O3280   2.158       .  S
Mg3251     O3295   2.279       .  S
Mg3251     O3291   2.284       .  S
Mg3251     O3262   2.279       .  S
O3252     Mg3294   2.162       .  S
O3252     Mg3277   2.149       .  S
O3252      C3273   1.239       .  S
O3253      C3284   1.267       .  A
O3253     Mg3277   2.298       .  S
C3254      O3256   1.269       .  A
C3254      O3268   1.277       .  A
C3254      C3533   1.469       .  S
O3255      C3283   1.271       .  A
O3255     Mg3257   2.287       .  S
O3256     Mg3288   2.224       .  S
Mg3257     O3263   2.153       .  S
Mg3257     O3271   2.238       .  S
Mg3257     O3259   2.273       .  S
C3258      O3296   1.269       .  A
C3258      O3264   1.267       .  A
C3258      C3538   1.462       .  S
O3259      C3266   1.269       .  A
H3260      C3273   1.081       .  S
C3261      O3275   1.237       .  S
C3261      O3276   1.273       .  A
C3261      H3286   1.081       .  S
O3262      C3285   1.266       .  A
O3263     Mg3277   2.172       .  S
O3264     Mg3294   2.273       .  S
C3265      O3278   1.273       .  A
C3265      O3270   1.279       .  A
C3265      C3498   1.483       .  S
Mg3267     O3274   2.125       .  S
Mg3267     O3275   2.148       .  S
Mg3267     O3268   2.340       .  S
Mg3267     O3269   2.316       .  S
Mg3267     O3296   2.229       .  S
O3269      C3273   1.274       .  A
O3271      C3290   1.270       .  A
O3272      C3292   1.277       .  A
O3272     Mg3288   2.335       .  S
O3274     Mg3288   2.140       .  S
O3274      C3285   1.233       .  S
O3275     Mg3294   2.175       .  S
O3276     Mg3288   2.321       .  S
H3279      C3284   1.081       .  S
O3280     Mg3288   2.110       .  S
O3280      C3283   1.239       .  S
H3281      C3283   1.081       .  S
H3282      C3285   1.081       .  S
O3287     Mg3294   2.288       .  S
C3290      O3295   1.271       .  A
C3290      C3530   1.464       .  S
O3291      C3292   1.274       .  A
C3292      C3486   1.480       .  S
C3297      C3597   1.477       .  S
C3297      C3298   1.397       .  A
C3297      C3302   1.414       .  A
C3298      H3317   1.086       .  S
C3298      C3299   1.393       .  A
C3299      C3585   1.479       .  S
C3299      C3300   1.412       .  A
C3300      C3301   1.422       .  A
C3300      C3307   1.404       .  A
C3301      C3302   1.419       .  A
C3301      C3306   1.418       .  A
C3302      C3303   1.407       .  A
C3303      H3313   1.083       .  S
C3303      C3304   1.400       .  A
C3304      H3314   1.082       .  S
C3304      C3305   1.407       .  A
C3305      C3306   1.422       .  A
C3305      C3312   1.419       .  A
C3306      C3309   1.417       .  A
C3307      H3315   1.080       .  S
C3307      C3308   1.388       .  A
C3308      H3316   1.082       .  S
C3308      C3309   1.404       .  A
C3309      C3310   1.405       .  A
C3310      C3529   1.475       .  S
C3310      C3311   1.397       .  A
C3311      H3318   1.085       .  S
C3311      C3312   1.397       .  A
C3312      C3542   1.487       .  S
C3319      C3658   1.488       .  S
C3319      C3320   1.399       .  A
C3319      C3324   1.419       .  A
C3320      H3339   1.086       .  S
C3320      C3321   1.396       .  A
C3321      C3622   1.483       .  S
C3321      C3322   1.411       .  A
C3322      C3323   1.424       .  A
C3322      C3329   1.404       .  A
C3323      C3324   1.423       .  A
C3324      C3325   1.407       .  A
C3325      H3335   1.082       .  S
C3326      H3336   1.082       .  S
C3326      C3327   1.405       .  A
C3327      C3328   1.424       .  A
C3327      C3334   1.419       .  A
C3328      C3331   1.418       .  A
C3329      H3337   1.081       .  S
C3330      H3338   1.083       .  S
C3330      C3331   1.404       .  A
C3331      C3332   1.404       .  A
C3332      C3537   1.474       .  S
C3332      C3333   1.396       .  A
C3333      H3340   1.085       .  S
C3333      C3334   1.395       .  A
C3334      C3549   1.488       .  S
C3341      C3662   1.493       .  S
C3341      C3342   1.393       .  A
C3341      C3346   1.414       .  A
C3342      H3361   1.082       .  S
C3342      C3343   1.395       .  A
C3343      C3614   1.489       .  S
C3343      C3344   1.411       .  A
C3344      C3345   1.421       .  A
C3344      C3351   1.403       .  A
C3345      C3346   1.423       .  A
C3345      C3350   1.421       .  A
C3346      C3347   1.400       .  A
C3347      H3357   1.082       .  S
C3347      C3348   1.394       .  A
C3348      H3358   1.081       .  S
C3348      C3349   1.413       .  A
C3349      C3350   1.417       .  A
C3349      C3356   1.425       .  A
C3350      C3353   1.415       .  A
C3351      H3359   1.083       .  S
C3351      C3352   1.394       .  A
C3352      H3360   1.083       .  S
C3352      C3353   1.408       .  A
C3353      C3354   1.413       .  A
C3354      C3534   1.480       .  S
C3354      C3355   1.403       .  A
C3355      H3362   1.079       .  S
C3355      C3356   1.403       .  A
C3356      C3574   1.491       .  S
C3363      C3625   1.499       .  S
C3363      C3364   1.404       .  A
C3363      C3368   1.426       .  A
C3364      H3383   1.083       .  S
C3364      C3365   1.395       .  A
C3365      C3609   1.484   1_565  S
C3365      C3366   1.410   1_565  A
C3366      C3367   1.423       .  A
C3366      C3373   1.404       .  A
C3367      C3368   1.425   1_545  A
C3368      C3369   1.412       .  A
C3369      H3379   1.075       .  S
C3370      H3380   1.082       .  S
C3370      C3371   1.410       .  A
C3371      C3372   1.418       .  A
C3371      C3378   1.424       .  A
C3372      C3375   1.419       .  A
C3373      H3381   1.081       .  S
C3374      H3382   1.080       .  S
C3374      C3375   1.411       .  A
C3375      C3376   1.427       .  A
C3376      C3545   1.496       .  S
C3376      C3377   1.415       .  A
C3377      H3384   1.083       .  S
C3377      C3378   1.407       .  A
C3378      C3570   1.505       .  S
O3385     Mg3393   2.181   1_554  S
O3385      C3420   1.233       .  S
C3386      O3399   1.233       .  S
C3386      O3423   1.268       .  A
C3386      H3425   1.081       .  S
Mg3387     O3416   2.190   1_554  S
Mg3387     O3431   2.326       .  S
Mg3387     O3427   2.277       .  S
Mg3387     O3398   2.295       .  S
O3388     Mg3430   2.191   1_554  S
O3388     Mg3413   2.183       .  S
O3388      C3409   1.234       .  S
O3389     Mg3413   2.294       .  S
C3390      O3392   1.276   1_545  A
O3391     Mg3393   2.297       .  S
O3392     Mg3424   2.297       .  S
Mg3393     O3407   2.245   1_556  S
Mg3393     O3395   2.299   1_556  S
C3394      O3400   1.277       .  A
H3396      C3409   1.082       .  S
C3397      O3411   1.232       .  S
C3397      H3422   1.082       .  S
O3398      C3421   1.268       .  A
O3399     Mg3413   2.168   1_556  S
O3400     Mg3430   2.325       .  S
C3401      O3414   1.274       .  A
C3401      O3406   1.269       .  A
C3402      O3429   1.274       .  A
Mg3403     O3411   2.175   1_554  S
Mg3403     O3404   2.284   1_554  S
Mg3403     O3405   2.297   1_655  S
Mg3403     O3432   2.242       .  S
O3406     Mg3413   2.275   1_556  S
O3408      C3428   1.275       .  A
O3408     Mg3424   2.307   1_554  S
O3410     Mg3424   2.170   1_554  S
O3410      C3421   1.233       .  S
O3412     Mg3424   2.297   1_545  S
Mg3413     O3429   2.293       .  S
O3414     Mg3430   2.268       .  S
H3415      C3420   1.081       .  S
O3416     Mg3424   2.174       .  S
O3416      C3419   1.233       .  S
H3417      C3419   1.082       .  S
H3418      C3421   1.081       .  S
O3423     Mg3430   2.297       .  S
C3426      O3431   1.278       .  A
O3427      C3428   1.275       .  A
O3433     Mg3435   2.188       .  S
O3433     Mg3441   2.143       .  S
O3433      C3468   1.236       .  S
C3434      O3447   1.235       .  S
C3434      O3471   1.272       .  A
C3434      H3473   1.082       .  S
Mg3435     O3464   2.141       .  S
Mg3435     O3479   2.296       .  S
Mg3435     O3475   2.299       .  S
Mg3435     O3446   2.307       .  S
O3436     Mg3478   2.137       .  S
O3436     Mg3461   2.149       .  S
O3436      C3457   1.236       .  S
O3437      C3468   1.274       .  A
O3437     Mg3461   2.327       .  S
C3438      O3440   1.265       .  A
C3438      O3452   1.274       .  A
O3439      C3467   1.272       .  A
O3439     Mg3441   2.318       .  S
O3440     Mg3472   2.242       .  S
Mg3441     O3447   2.170       .  S
Mg3441     O3455   2.290       .  S
Mg3441     O3443   2.330       .  S
C3442      O3480   1.271       .  A
C3442      O3448   1.268       .  A
O3443      C3450   1.277       .  A
H3444      C3457   1.081       .  S
C3445      O3459   1.236       .  S
C3445      O3460   1.272       .  A
C3445      H3470   1.081       .  S
O3446      C3469   1.270       .  A
O3447     Mg3461   2.141       .  S
O3448     Mg3478   2.290       .  S
C3449      O3462   1.266       .  A
C3449      O3454   1.269       .  A
C3450      O3477   1.263       .  A
Mg3451     O3458   2.154       .  S
Mg3451     O3459   2.136       .  S
Mg3451     O3452   2.313       .  S
Mg3451     O3453   2.313       .  S
Mg3451     O3480   2.275       .  S
O3453      C3457   1.272       .  A
O3454     Mg3461   2.307       .  S
O3455      C3474   1.273       .  A
O3456      C3476   1.269       .  A
O3456     Mg3472   2.299       .  S
O3458     Mg3472   2.139       .  S
O3458      C3469   1.234       .  S
O3459     Mg3478   2.153       .  S
O3460     Mg3472   2.314       .  S
Mg3461     O3477   2.239       .  S
O3462     Mg3478   2.248       .  S
H3463      C3468   1.081       .  S
O3464     Mg3472   2.159       .  S
O3464      C3467   1.235       .  S
H3465      C3467   1.080       .  S
H3466      C3469   1.081       .  S
O3471     Mg3478   2.317       .  S
C3474      O3479   1.271       .  A
O3475      C3476   1.273       .  A
O3481     Mg3483   2.153       .  S
O3481     Mg3489   2.138       .  S
O3481      C3516   1.234       .  S
C3482      O3495   1.235       .  S
C3482      O3519   1.270       .  A
C3482      H3521   1.082       .  S
Mg3483     O3512   2.175       .  S
Mg3483     O3527   2.290       .  S
Mg3483     O3523   2.257       .  S
Mg3483     O3494   2.311       .  S
O3484     Mg3526   2.179       .  S
O3484     Mg3509   2.170       .  S
O3484      C3505   1.236       .  S
O3485      C3516   1.270       .  A
O3485     Mg3509   2.302       .  S
C3486      O3488   1.272       .  A
C3486      O3500   1.270       .  A
O3487      C3515   1.275       .  A
O3487     Mg3489   2.321       .  S
O3488     Mg3520   2.313       .  S
Mg3489     O3495   2.161       .  S
Mg3489     O3503   2.302       .  S
Mg3489     O3491   2.358       .  S
C3490      O3528   1.270       .  A
C3490      O3496   1.274       .  A
O3491      C3498   1.281       .  A
H3492      C3505   1.083       .  S
C3493      O3507   1.235       .  S
C3493      O3508   1.273       .  A
C3493      H3518   1.081       .  S
O3494      C3517   1.272       .  A
O3495     Mg3509   2.151       .  S
O3496     Mg3526   2.312       .  S
C3497      O3510   1.271       .  A
C3497      O3502   1.273       .  A
C3498      O3525   1.274       .  A
Mg3499     O3506   2.180       .  S
Mg3499     O3507   2.138       .  S
Mg3499     O3500   2.306       .  S
Mg3499     O3501   2.310       .  S
Mg3499     O3528   2.277       .  S
O3501      C3505   1.272       .  A
O3502     Mg3509   2.285       .  S
O3503      C3522   1.275       .  A
O3504      C3524   1.275       .  A
O3504     Mg3520   2.310       .  S
O3506     Mg3520   2.145       .  S
O3506      C3517   1.236       .  S
O3507     Mg3526   2.160       .  S
O3508     Mg3520   2.326       .  S
Mg3509     O3525   2.296       .  S
O3510     Mg3526   2.282       .  S
H3511      C3516   1.081       .  S
O3512     Mg3520   2.172       .  S
O3512      C3515   1.238       .  S
H3513      C3515   1.081       .  S
H3514      C3517   1.080       .  S
O3519     Mg3526   2.302       .  S
C3522      O3527   1.269       .  A
O3523      C3524   1.266       .  A
C3529      C3530   1.342       .  D
C3529      H3531   1.087       .  S
C3530      H3532   1.088       .  S
C3533      C3534   1.343       .  D
C3533      H3535   1.086       .  S
C3534      H3536   1.088       .  S
C3537      C3538   1.337       .  D
C3537      H3539   1.087       .  S
C3538      H3540   1.088   1_655  S
C3541      C3542   1.351       .  D
C3542      H3544   1.086       .  S
C3545      C3546   1.349       .  D
C3545      H3547   1.087       .  S
C3546      H3548   1.087       .  S
C3549      C3550   1.351       .  D
C3549      H3551   1.086       .  S
C3550      H3552   1.087       .  S
C3553      C3554   1.339       .  D
C3553      H3555   1.087       .  S
C3557      C3558   1.345       .  D
C3557      H3559   1.086       .  S
C3561      C3562   1.353       .  D
C3562      H3564   1.085   1_565  S
C3565      C3566   1.344       .  D
C3565      H3567   1.087       .  S
C3566      H3568   1.086       .  S
C3569      C3570   1.350       .  D
C3569      H3571   1.088       .  S
C3570      H3572   1.086       .  S
C3573      C3574   1.346       .  D
C3573      H3575   1.088       .  S
C3574      H3576   1.086       .  S
C3577      C3578   1.349       .  D
C3577      H3579   1.087       .  S
C3578      H3580   1.087       .  S
C3581      C3582   1.352       .  D
C3581      H3583   1.087       .  S
C3582      H3584   1.086       .  S
C3585      C3586   1.340       .  D
C3585      H3587   1.087       .  S
C3586      H3588   1.087       .  S
C3589      C3590   1.340       .  D
C3589      H3591   1.086       .  S
C3590      H3592   1.089       .  S
C3593      C3594   1.346       .  D
C3593      H3595   1.088       .  S
C3594      H3596   1.086       .  S
C3597      C3598   1.347       .  D
C3597      H3599   1.087       .  S
C3598      H3600   1.087       .  S
C3601      C3602   1.354       .  D
C3601      H3603   1.086       .  S
C3602      H3604   1.087       .  S
C3605      C3606   1.340       .  D
C3605      H3607   1.087       .  S
C3606      H3608   1.088       .  S
C3609      C3610   1.343   1_545  D
C3609      H3611   1.091       .  S
C3610      H3612   1.092       .  S
C3613      C3614   1.342       .  D
C3613      H3615   1.086       .  S
C3614      H3616   1.087       .  S
C3617      C3618   1.344       .  D
C3617      H3619   1.087       .  S
C3618      H3620   1.086       .  S
C3621      C3622   1.349       .  D
C3621      H3623   1.087       .  S
C3622      H3624   1.087       .  S
C3625      C3626   1.349       .  D
C3625      H3627   1.094       .  S
C3626      H3628   1.094       .  S
C3629      C3630   1.349       .  D
C3630      H3632   1.087       .  S
C3633      C3634   1.350       .  D
C3633      H3635   1.087       .  S
C3634      H3636   1.087       .  S
C3637      C3638   1.347       .  D
C3637      H3639   1.087       .  S
C3638      H3640   1.087       .  S
C3641      C3642   1.353       .  D
C3641      H3643   1.086       .  S
C3642      H3644   1.088       .  S
C3645      C3646   1.335       .  D
C3645      H3647   1.087       .  S
C3646      H3648   1.088       .  S
C3649      C3650   1.347       .  D
C3649      H3651   1.087       .  S
C3650      H3652   1.087       .  S
C3653      C3654   1.338       .  D
C3654      H3656   1.087       .  S
C3657      C3658   1.345       .  D
C3657      H3659   1.087       .  S
C3658      H3660   1.087       .  S
C3661      C3662   1.351       .  D
C3661      H3663   1.089       .  S
C3662      H3664   1.085       .  S
C3665      C3666   1.351       .  D
C3665      H3667   1.088       .  S
C3666      H3668   1.086   1_655  S
C3669      C3670   1.340       .  D
C3669      H3671   1.087       .  S
C3670      H3672   1.087       .  S
