geometry optimzed in LAMMPS
_audit_creation_date              2020-11-30 
_audit_creation_method            'lammps2cif' 
_symmetry_space_group_name_H-M    'P1' 
_symmetry_Int_Tables_number       1 
_symmetry_cell_setting            triclinic 
loop_ 
_symmetry_equiv_pos_as_xyz 
  x,y,z 
_cell_length_a                    33.35562491 
_cell_length_b                    33.37282726963363 
_cell_length_c                    36.87540425328403 
_cell_angle_alpha                 89.91566326772802 
_cell_angle_beta                  90.1799929792096 
_cell_angle_gamma                 90.81234621863128 
loop_ 
_atom_site_label 
_atom_site_type_symbol 
_atom_site_fract_x 
_atom_site_fract_y 
_atom_site_fract_z 
_atom_site_charge 
C1          C  0.77544697  0.90840297  0.34808162     0.79100
N2          N  0.73517441  0.90423875  0.35250843    -0.79200
C3          C  0.72286369  0.88948931  0.38448251     0.81500
N4          N  0.74047111  0.85464076  0.39322378    -0.79200
C5          C  0.78131631  0.85456060  0.39124428     0.81600
N6          N  0.79985329  0.88521315  0.37078482    -0.80900
C7          C  0.73162984  0.90954630  0.58935447     0.79100
N8          N  0.69901228  0.91194079  0.56720134    -0.79200
C9          C  0.69901902  0.89326200  0.53523450     0.81500
N10         N  0.71818155  0.85805746  0.53471256    -0.79200
C11         C  0.75413481  0.85610931  0.55211773     0.81600
N12         N  0.76225836  0.88359641  0.57978865    -0.80900
C13         C  0.83105480  0.11167597  0.41575164     0.79100
N14         N  0.82120538  0.11341796  0.37959151    -0.79200
C15         C  0.82245813  0.07881176  0.35918913     0.81500
N16         N  0.83288794  0.04431864  0.37562115    -0.79200
C17         C  0.83239368  0.04156111  0.41188521     0.81600
N18         N  0.83409334  0.07543957  0.43176497    -0.80900
C19         C  0.81533103  0.10422294  0.55725265     0.79100
N20         N  0.79899071  0.09884901  0.59135906    -0.79200
C21         C  0.78846632  0.06046814  0.60225878     0.81500
N22         N  0.79079144  0.03017471  0.57839331    -0.79200
C23         C  0.80301726  0.03627239  0.54438982     0.81600
N24         N  0.81545268  0.07302362  0.53389836    -0.80900
O25         O  0.80784610  0.97785508  0.50998689    -0.74100
O26         O  0.76390625  0.91485647  0.43115696    -0.75100
O27         O  0.82145071  0.97776123  0.43762907    -0.63700
O28         O  0.75335933  0.91479548  0.50135682    -0.72100
O29         O  0.69827191  0.95037680  0.49478399    -0.71700
O30         O  0.76896707  0.01728771  0.42934886    -0.62900
O31         O  0.71068107  0.95084607  0.41908816    -0.75400
O32         O  0.75445983  0.01646210  0.50237794    -0.74200
Cu33       Cu  0.78798192  0.94472201  0.47001025     1.04600
Cu34       Cu  0.73098815  0.98551142  0.46090265     1.04300
C35         C  0.78806953  0.00886207  0.51756759     0.92100
C36         C  0.73128874  0.91959824  0.41369954     0.91200
C37         C  0.80658337  0.01018861  0.42638154     0.83400
C38         C  0.71648082  0.92034484  0.50804489     0.89700
C39         C  0.92387491  0.69106115  0.36250508     0.79100
N40         N  0.90621188  0.72410344  0.37811916    -0.79200
C41         C  0.87165970  0.71779812  0.39804368     0.81500
N42         N  0.85655134  0.67966964  0.39993293    -0.79200
C43         C  0.88394446  0.65010736  0.39965766     0.81600
N44         N  0.91245398  0.65370294  0.37396116    -0.80900
C45         C  0.90903266  0.69179371  0.61017482     0.79100
N46         N  0.88980502  0.72333210  0.59315068    -0.79200
C47         C  0.85869790  0.71468255  0.56907540     0.81500
N48         N  0.84985403  0.67511490  0.56261046    -0.79200
C49         C  0.87991223  0.64835702  0.56758487     0.81600
N50         N  0.90194283  0.65380927  0.59784462    -0.80900
C51         C  0.08401694  0.77056809  0.41638942     0.79100
N52         N  0.05263975  0.75369152  0.43436676    -0.79200
C53         C  0.02496134  0.73164342  0.41620819     0.81500
N54         N  0.02782449  0.72730495  0.38051984    -0.79200
C55         C  0.05927214  0.74235904  0.36200639     0.81600
N56         N  0.08906453  0.76279644  0.38009328    -0.80900
C57         C  0.09032192  0.76611078  0.55824608     0.79100
N58         N  0.06188977  0.74991943  0.53616619    -0.79200
C59         C  0.03147265  0.72803552  0.55005799     0.81500
N60         N  0.02840328  0.72322641  0.58571636    -0.79200
C61         C  0.05597594  0.73870625  0.60862823     0.81600
N62         N  0.08846950  0.75968545  0.59517324    -0.80900
O63         O  0.96154486  0.72386218  0.44045034    -0.74100
O64         O  0.91102107  0.68658379  0.52497080    -0.75100
O65         O  0.97686211  0.73125167  0.51158247    -0.63700
O66         O  0.89380062  0.67533425  0.45728494    -0.72100
O67         O  0.93334142  0.62588804  0.44230033    -0.71700
O68         O  0.00142250  0.67091184  0.52361851    -0.62900
O69         O  0.92773139  0.62320895  0.52212172    -0.75400
O70         O  0.00444696  0.67421245  0.44880648    -0.74200
Cu71       Cu  0.93438594  0.70557131  0.48349843     1.04600
Cu72       Cu  0.96817810  0.64526585  0.48422486     1.04300
C73         C  0.99537483  0.70834044  0.43528371     0.92100
C74         C  0.90704788  0.65115121  0.53623122     0.91200
C75         C  0.00215395  0.70911642  0.52721380     0.83400
C76         C  0.90261338  0.64713048  0.43589122     0.89700
C77         C  0.25357326  0.91808121  0.35633188     0.79100
N78         N  0.29153043  0.90662882  0.36487656    -0.79200
C79         C  0.29611628  0.88508238  0.39540456     0.81500
N80         N  0.26896376  0.85482553  0.39908606    -0.79200
C81         C  0.22986171  0.86580186  0.39597298     0.82800
N82         N  0.22204440  0.90047583  0.37587976    -0.80900
C83         C  0.27896790  0.91210688  0.60302615     0.79100
N84         N  0.31398142  0.90811764  0.58444289    -0.79200
C85         C  0.31368632  0.88867182  0.55269086     0.81500
N86         N  0.28794520  0.85684077  0.55093317    -0.79200
C87         C  0.25021379  0.86225136  0.56420561     0.81600
N88         N  0.24509165  0.89178964  0.59039277    -0.80900
C89         C  0.19343053  0.10611286  0.42051344     0.79100
N90         N  0.19357186  0.06907978  0.43562398    -0.79200
C91         C  0.20289984  0.03659909  0.41564886     0.81500
N92         N  0.20873787  0.04071777  0.38003731    -0.79200
C93         C  0.21428259  0.07709798  0.36493749     0.81600
N94         N  0.20793157  0.11078705  0.38576430    -0.80900
C95         C  0.20404012  0.10345508  0.56332577     0.79100
N96         N  0.21876878  0.10023693  0.59851934    -0.79200
C97         C  0.23517144  0.06410635  0.60924024     0.81500
N98         N  0.23932316  0.03481098  0.58474321    -0.79200
C99         C  0.22780356  0.03923884  0.55047986     0.81600
N100        N  0.20995663  0.07310915  0.53968929    -0.80900
O101        O  0.32723730  0.94242543  0.50849849    -0.74100
O102        O  0.26374338  0.01339455  0.43976142    -0.75100
O103        O  0.27793790  0.01341321  0.51348207    -0.63700
O104        O  0.31540652  0.94383448  0.43126458    -0.72100
O105        O  0.26276356  0.90762071  0.44712762    -0.71700
O106        O  0.21807968  0.98288765  0.51480278    -0.62900
O107        O  0.20987188  0.97340785  0.44268174    -0.75400
O108        O  0.26635071  0.91777825  0.51661313    -0.74200
Cu109      Cu  0.29869507  0.97996730  0.47278656     1.04600
Cu110      Cu  0.23798256  0.94397650  0.48039964     1.04300
C111        C  0.30338285  0.91735226  0.52377435     0.92100
C112        C  0.22650339  0.00595174  0.43303571     0.91200
C113        C  0.24173565  0.01075562  0.52478124     0.83400
C114        C  0.29354888  0.91251703  0.42729540     0.89700
C115        C  0.44025386  0.91070260  0.25848319     0.79100
N116        N  0.46542233  0.92744391  0.28349146    -0.79200
C117        C  0.45119009  0.94909154  0.31166478     0.81500
N118        N  0.41205163  0.95028475  0.31660495    -0.79200
C119        C  0.38620396  0.94025842  0.29002106     0.81600
N120        N  0.39997310  0.92039967  0.25960827    -0.80900
C121        C  0.64798356  0.93965948  0.28643613     0.79100
N122        N  0.63326444  0.91855448  0.25713045    -0.79200
C123        C  0.59223259  0.91533518  0.25321334     0.81500
N124        N  0.56821740  0.93590320  0.27580172    -0.79200
C125        C  0.58357901  0.95702563  0.30388169     0.81600
N126        N  0.62266400  0.95713906  0.30959599    -0.80900
C127        C  0.43115311  0.15328798  0.26365579     0.79100
N128        N  0.39975691  0.12555059  0.26049239    -0.79200
C129        C  0.38017980  0.11267090  0.29151746     0.81500
N130        N  0.39632493  0.12309058  0.32420415    -0.79200
C131        C  0.43358922  0.13890798  0.32577414     0.81600
N132        N  0.44465310  0.16279944  0.29751757    -0.80900
C133        C  0.65587805  0.09937384  0.28840227     0.79100
N134        N  0.63901433  0.11050981  0.32040681    -0.79200
C135        C  0.60537089  0.13240727  0.32063742     0.81500
N136        N  0.59915293  0.15605709  0.29147396    -0.79200
C137        C  0.60976611  0.14192821  0.25844302     0.81600
N138        N  0.63817844  0.11207717  0.25652719    -0.80900
O139        O  0.56179867  0.08913253  0.35622033    -0.74100
O140        O  0.47639722  0.00162619  0.35023011    -0.75100
O141        O  0.55700211  0.00278755  0.34650649    -0.63700
O142        O  0.47550430  0.09141922  0.35903538    -0.72100
O143        O  0.47217436  0.09093333  0.29903473    -0.71700
O144        O  0.55435997  0.01505912  0.28711337    -0.62900
O145        O  0.47710181  0.00851639  0.29021961    -0.75400
O146        O  0.55176401  0.09647164  0.29715287    -0.74200
Cu147      Cu  0.51750348  0.04646345  0.35587658     1.04600
Cu148      Cu  0.51351819  0.05347242  0.29193571     1.04300
C149        C  0.57035459  0.10608866  0.32608377     0.92100
C150        C  0.46979028  0.98775158  0.31831696     0.91200
C151        C  0.56412177  0.99314156  0.31361475     0.83400
C152        C  0.46222725  0.10595719  0.32916376     0.89700
C153        C  0.43567580  0.80908628  0.91360164     0.79100
N154        N  0.45691252  0.81511934  0.94464223    -0.79200
C155        C  0.44209090  0.80317880  0.97712830     0.81500
N156        N  0.40519894  0.78718816  0.97876730    -0.79200
C157        C  0.38464540  0.77718676  0.94859147     0.81600
N158        N  0.40093987  0.78626456  0.91518615    -0.80900
C159        C  0.65275312  0.81454060  0.94061259     0.79100
N160        N  0.63235249  0.81495637  0.90793345    -0.79200
C161        C  0.59229385  0.82421455  0.90750027     0.81500
N162        N  0.57231929  0.82543824  0.93924234    -0.79200
C163        C  0.59212758  0.82339317  0.97108077     0.81600
N164        N  0.63238382  0.82328287  0.97116996    -0.80900
C165        C  0.43421969  0.76514951  0.13974112     0.79100
N166        N  0.45226925  0.72928989  0.14548927    -0.79200
C167        C  0.45346993  0.70416467  0.11691169     0.81500
N168        N  0.41803060  0.69807858  0.10085695    -0.79200
C169        C  0.39642757  0.73118495  0.09287534     0.81600
N170        N  0.40725499  0.76736854  0.11029241    -0.80900
C171        C  0.66106444  0.77261285  0.09337688     0.79100
N172        N  0.65218996  0.73328936  0.09941632    -0.79200
C173        C  0.61583851  0.72500458  0.11320354     0.81500
N174        N  0.60729893  0.74673410  0.14309514    -0.79200
C175        C  0.61288865  0.78721821  0.14003340     0.81600
N176        N  0.63779187  0.80085155  0.11174197    -0.80900
O177        O  0.56026178  0.81900782  0.02774034    -0.74100
O178        O  0.49126984  0.75682679  0.09169937    -0.75100
O179        O  0.56791637  0.76646981  0.08681411    -0.63700
O180        O  0.47947785  0.80852563  0.03136359    -0.72100
O181        O  0.48445467  0.75287516  0.99856009    -0.71700
O182        O  0.57614981  0.70917718  0.05857777    -0.62900
O183        O  0.49270542  0.69976680  0.06157623    -0.75400
O184        O  0.56658011  0.76311612  0.99551116    -0.74200
Cu185      Cu  0.52466751  0.78911733  0.06067135     1.04600
Cu186      Cu  0.53013588  0.72900140  0.02693579     1.04300
C187        C  0.57246693  0.80096432  0.99980069     0.92100
C188        C  0.48208546  0.71976225  0.08930209     0.91200
C189        C  0.58446088  0.73244267  0.08499281     0.83400
C190        C  0.46990431  0.78779541  0.00380985     0.89700
C191        C  0.40914243  0.85956589  0.75297951     0.79100
N192        N  0.41389548  0.83936081  0.72088269    -0.79200
C193        C  0.41031333  0.86132884  0.68956511     0.81500
N194        N  0.37817836  0.88507493  0.68805356    -0.79200
C195        C  0.36790064  0.90504832  0.71868862     0.81600
N196        N  0.38651895  0.89456134  0.75134310    -0.80900
C197        C  0.63671036  0.90859859  0.70816656     0.79100
N198        N  0.62215292  0.88686722  0.67971320    -0.79200
C199        C  0.59210578  0.86038215  0.68605697     0.81500
N200        N  0.59388076  0.84122940  0.71861327    -0.79200
C201        C  0.59951011  0.86537138  0.74811901     0.81600
N202        N  0.62164409  0.90059454  0.74274050    -0.80900
C203        C  0.43066489  0.09802583  0.74286115     0.79100
N204        N  0.39025998  0.09403535  0.74904849    -0.79200
C205        C  0.37183627  0.05706891  0.74679281     0.81500
N206        N  0.39519775  0.02454077  0.74210957    -0.79200
C207        C  0.43363524  0.02895601  0.73151014     0.81600
N208        N  0.45131634  0.06554978  0.73196482    -0.80900
C209        C  0.64738313  0.04981756  0.73624989     0.79100
N210        N  0.62492391  0.01651349  0.73017974    -0.79200
C211        C  0.58525524  0.01636380  0.73477225     0.81500
N212        N  0.56736647  0.04835055  0.74909192    -0.79200
C213        C  0.58877938  0.08178646  0.75695447     0.81600
N214        N  0.62887558  0.08398327  0.74819713    -0.80900
O215        O  0.46100919  0.89648483  0.71596918    -0.74100
O216        O  0.54964313  0.95773462  0.74304059    -0.75100
O217        O  0.46933492  0.97093929  0.74432311    -0.63700
O218        O  0.53393854  0.88252149  0.71240711    -0.72100
O219        O  0.54579972  0.90627406  0.65772606    -0.71700
O220        O  0.46368403  0.98874307  0.68639315    -0.62900
O221        O  0.54756827  0.98532218  0.68805535    -0.75400
O222        O  0.45829857  0.90642998  0.65744286    -0.74200
Cu223      Cu  0.50338960  0.92603545  0.73020645     1.04600
Cu224      Cu  0.50376224  0.94759144  0.66953618     1.04300
C225        C  0.44597108  0.88792725  0.68578602     0.92100
C226        C  0.56088090  0.98424080  0.72077646     0.91200
C227        C  0.45617137  0.99438363  0.72007988     0.83400
C228        C  0.55370091  0.88168467  0.68319388     0.89700
C229        C  0.41879482  0.25328266  0.91360691     0.79100
N230        N  0.45099266  0.24006773  0.93261619    -0.79200
C231        C  0.48545524  0.23167422  0.91500651     0.81500
N232        N  0.48873981  0.23917374  0.87972656    -0.79200
C233        C  0.45565901  0.24338951  0.85938612     0.81600
N234        N  0.41953569  0.25058919  0.87627891    -0.80900
C235        C  0.66332160  0.21852850  0.89884017     0.79100
N236        N  0.67480216  0.18015361  0.90453551    -0.79200
C237        C  0.64603342  0.15177555  0.89945277     0.81500
N238        N  0.62470342  0.15528336  0.86856612    -0.79200
C239        C  0.61327893  0.19270003  0.85846018     0.81600
N240        N  0.63021895  0.22497120  0.87664691    -0.80900
C241        C  0.41861084  0.24009833  0.05299241     0.79100
N242        N  0.44287295  0.22231503  0.02876011    -0.79200
C243        C  0.46790295  0.19322914  0.03924178     0.81500
N244        N  0.46986311  0.18228406  0.07381061    -0.79200
C245        C  0.44848904  0.20071804  0.09934852     0.81600
N246        N  0.42221418  0.23060825  0.08945709    -0.80900
C247        C  0.66031855  0.19503645  0.06510895     0.79100
N248        N  0.66322538  0.15696638  0.05189643    -0.79200
C249        C  0.63141476  0.13124785  0.05653747     0.81500
N250        N  0.61131235  0.13447600  0.08815454    -0.79200
C251        C  0.60953689  0.17064062  0.10522694     0.81600
N252        N  0.63203112  0.20206718  0.09164266    -0.80900
O253        O  0.59753673  0.17465718  0.02122007    -0.74100
O254        O  0.54776507  0.22499585  0.94168389    -0.75100
O255        O  0.52647104  0.21093289  0.01033482    -0.63700
O256        O  0.61881618  0.18153280  0.95167084    -0.72100
O257        O  0.58762694  0.12738846  0.93104025    -0.71700
O258        O  0.50586684  0.14718009  0.00711319    -0.62900
O259        O  0.51073563  0.16939927  0.93591327    -0.75400
O260        O  0.58460451  0.11144504  0.00750408    -0.74200
Cu261      Cu  0.57392950  0.19951774  0.98162899     1.04600
Cu262      Cu  0.54610204  0.13587240  0.96951990     1.04300
C263        C  0.60313802  0.13789653  0.02665058     0.92100
C264        C  0.51611837  0.20738908  0.93128823     0.91200
C265        C  0.50111943  0.18321325  0.01733358     0.83400
C266        C  0.61744451  0.15158944  0.93017032     0.89700
C267        C  0.25655104  0.35078078  0.91145674     0.79100
N268        N  0.21886906  0.34045832  0.92318556    -0.79200
C269        C  0.19137561  0.37018883  0.92335054     0.81500
N270        N  0.18912921  0.39040202  0.89211196    -0.79200
C271        C  0.22446649  0.40330484  0.87760689     0.81600
N272        N  0.25989927  0.38556719  0.89006133    -0.80900
C273        C  0.28709089  0.60191225  0.93243796     0.79100
N274        N  0.28870328  0.56664768  0.95067913    -0.79200
C275        C  0.28120426  0.53154836  0.93362228     0.81500
N276        N  0.27305118  0.53151445  0.89814965    -0.79200
C277        C  0.26623396  0.56588378  0.88006607     0.81600
N278        N  0.27290924  0.60201905  0.89736848    -0.80900
C279        C  0.26790716  0.34041605  0.07576367     0.79100
N280        N  0.22889746  0.33044965  0.06838158    -0.79200
C281        C  0.20228277  0.36025884  0.07302445     0.81500
N282        N  0.20452701  0.37756861  0.10573723    -0.79200
C283        C  0.24177188  0.38989145  0.11643406     0.81600
N284        N  0.27468317  0.37374776  0.09828215    -0.80900
C285        C  0.30905271  0.58838496  0.06908634     0.79100
N286        N  0.29517178  0.58781762  0.10403901    -0.79200
C287        C  0.28900953  0.55152292  0.12097152     0.81500
N288        N  0.29519677  0.51752338  0.10224487    -0.79200
C289        C  0.29996337  0.51852645  0.06627655     0.81600
N290        N  0.30847136  0.55383365  0.04981375    -0.80900
O291        O  0.17860200  0.42645547  0.96495346    -0.74100
O292        O  0.23974433  0.49402226  0.03985614    -0.75100
O293        O  0.22946754  0.49971250  0.96594769    -0.63700
O294        O  0.18647933  0.42214324  0.04083775    -0.72100
O295        O  0.24286581  0.39139429  0.02917243    -0.71700
O296        O  0.28761139  0.46825284  0.96104025    -0.62900
O297        O  0.29537225  0.45867922  0.03346448    -0.75400
O298        O  0.23825744  0.39985311  0.96131706    -0.74200
Cu299      Cu  0.20613533  0.46226491  0.00325665     1.04600
Cu300      Cu  0.26736735  0.42824628  0.99603766     1.04300
C301        C  0.20162981  0.39951778  0.95249396     0.92100
C302        C  0.27736054  0.48866482  0.04592803     0.91200
C303        C  0.26559425  0.49807086  0.95436944     0.83400
C304        C  0.20902427  0.39198482  0.04496299     0.89700
C305        C  0.83985280  0.40805798  0.76328475     0.79100
N306        N  0.83264973  0.41434021  0.72724764    -0.79200
C307        C  0.86443637  0.40879068  0.70517548     0.81500
N308        N  0.88103127  0.37271827  0.70922016    -0.79200
C309        C  0.89179832  0.36319108  0.74373396     0.81600
N310        N  0.87339935  0.38459216  0.77195182    -0.80900
C311        C  0.90128070  0.62608468  0.72266009     0.79100
N312        N  0.89353281  0.60785651  0.69038334    -0.79200
C313        C  0.87338314  0.57304910  0.69160158     0.81500
N314        N  0.84099535  0.57319690  0.71376947    -0.79200
C315        C  0.84692776  0.58827338  0.74789975     0.81600
N316        N  0.88001258  0.61358769  0.75321663    -0.80900
C317        C  0.08699334  0.42507289  0.80617486     0.79100
N318        N  0.08940373  0.38797484  0.79040581    -0.79200
C319        C  0.05479392  0.36584718  0.78471701     0.81500
N320        N  0.01927775  0.38229854  0.79330416    -0.79200
C321        C  0.01683369  0.42153250  0.80080583     0.81600
N322        N  0.05064534  0.44217463  0.80933858    -0.80900
C323        C  0.05601187  0.63647289  0.76961615     0.79100
N324        N  0.02254287  0.61329653  0.77238187    -0.79200
C325        C  0.02437865  0.57440608  0.78129531     0.81500
N326        N  0.05973942  0.55877660  0.79110593    -0.79200
C327        C  0.09368698  0.58138953  0.79127524     0.81600
N328        N  0.09261877  0.62003219  0.77822148    -0.80900
O329        O  0.95653109  0.45689600  0.79414612    -0.74100
O330        O  0.89938372  0.53390128  0.73752816    -0.75100
O331        O  0.89275745  0.45859915  0.74264811    -0.63700
O332        O  0.96359900  0.53818785  0.78590465    -0.72100
O333        O  0.99909730  0.53286021  0.73515100    -0.71700
O334        O  0.92764203  0.44508005  0.69385262    -0.62900
O335        O  0.93061493  0.52838839  0.68533340    -0.75400
O336        O  0.99550464  0.45033515  0.74572582    -0.74200
Cu337      Cu  0.92669930  0.49699748  0.76632210     1.04600
Cu338      Cu  0.96516785  0.48872668  0.71306674     1.04300
C339        C  0.98768491  0.44335510  0.77933796     0.92100
C340        C  0.90185424  0.54218327  0.70407269     0.91200
C341        C  0.89582679  0.44044139  0.71248883     0.83400
C342        C  0.99391827  0.54756433  0.76686989     0.89700
C343        C  0.71902521  0.43253435  0.88191084     0.79100
N344        N  0.68156066  0.44818972  0.88235505    -0.79200
C345        C  0.65322477  0.43330368  0.90498958     0.81500
N346        N  0.65771965  0.39558358  0.91604882    -0.79200
C347        C  0.69482642  0.37973418  0.91866149     0.81600
N348        N  0.72687142  0.39889674  0.90229956    -0.80900
C349        C  0.70929586  0.64253118  0.92102935     0.79100
N350        N  0.73894608  0.62525364  0.90014012    -0.79200
C351        C  0.72840633  0.59183655  0.87943498     0.81500
N352        N  0.69199116  0.57409943  0.88458093    -0.79200
C353        C  0.66589380  0.58799843  0.90924208     0.81600
N354        N  0.67257962  0.62465865  0.92219390    -0.80900
C355        C  0.72289231  0.42504140  0.10360763     0.79100
N356        N  0.72768974  0.38786272  0.08819722    -0.79200
C357        C  0.69544292  0.37094588  0.07021977     0.81500
N358        N  0.66159303  0.39229366  0.06569319    -0.79200
C359        C  0.66000799  0.43093820  0.07455328     0.81600
N360        N  0.68892806  0.44571973  0.09679993    -0.80900
C361        C  0.71199147  0.63821827  0.07406210     0.79100
N362        N  0.67756695  0.61770268  0.06763213    -0.79200
C363        C  0.67299378  0.57929469  0.07629261     0.81500
N364        N  0.70030188  0.56277989  0.09869271    -0.79200
C365        C  0.73451581  0.58257434  0.10825577     0.81600
N366        N  0.74227261  0.62023487  0.09370756    -0.80900
O367        O  0.62399605  0.55311158  0.95262240    -0.74100
O368        O  0.61983875  0.46696409  0.03110605    -0.75100
O369        O  0.62747005  0.54954808  0.03310530    -0.63700
O370        O  0.61639859  0.46979360  0.95030094    -0.72100
O371        O  0.68294550  0.46683816  0.95173237    -0.71700
O372        O  0.69350162  0.54301426  0.02784391    -0.62900
O373        O  0.68625003  0.46472026  0.02634138    -0.75400
O374        O  0.69008446  0.54533737  0.95239288    -0.74200
Cu375      Cu  0.61887305  0.51003579  0.99181067     1.04600
Cu376      Cu  0.68989370  0.50482730  0.98945175     1.04300
C377        C  0.65858282  0.56021391  0.93884225     0.92100
C378        C  0.65404594  0.45555343  0.04275134     0.91200
C379        C  0.66320823  0.55560152  0.04482568     0.83400
C380        C  0.64961698  0.45833809  0.93680020     0.89700
C381        C  0.84958543  0.39973602  0.22139456     0.79100
N382        N  0.84620667  0.40876973  0.25731506    -0.79200
C383        C  0.87863227  0.40064427  0.27787760     0.81500
N384        N  0.89115264  0.36290967  0.27408910    -0.79200
C385        C  0.89949135  0.35202907  0.23947002     0.81600
N386        N  0.88057669  0.37369202  0.21162665    -0.80900
C387        C  0.91804462  0.61254179  0.25822903     0.79100
N388        N  0.89481885  0.60028194  0.22867132    -0.79200
C389        C  0.86247382  0.57441867  0.23533958     0.81500
N390        N  0.85898331  0.55863615  0.26947483    -0.79200
C391        C  0.89231837  0.55941092  0.29068843     0.81600
N392        N  0.91219869  0.59437191  0.29082431    -0.80900
C393        C  0.10395858  0.41124732  0.18134317     0.79100
N394        N  0.10423277  0.37518581  0.19943819    -0.79200
C395        C  0.06902772  0.35312671  0.20224595     0.81500
N396        N  0.03505749  0.36886360  0.18865810    -0.79200
C397        C  0.03361766  0.40802783  0.18042257     0.81600
N398        N  0.06825205  0.42801688  0.17368617    -0.80900
C399        C  0.07359483  0.62496508  0.21043014     0.79100
N400        N  0.11107096  0.60870622  0.20604685    -0.79200
C401        C  0.11405596  0.56845927  0.19899033     0.81500
N402        N  0.08083537  0.54512589  0.19940890    -0.79200
C403        C  0.04444429  0.56087269  0.20379369     0.81600
N404        N  0.04082823  0.60064541  0.20777147    -0.80900
O405        O  0.01205556  0.43582272  0.23581491    -0.74100
O406        O  0.94999991  0.51546595  0.29631058    -0.75100
O407        O  0.94373417  0.43343932  0.28748711    -0.63700
O408        O  0.01859197  0.51783707  0.24788311    -0.72100
O409        O  0.98244129  0.52717165  0.19776657    -0.71700
O410        O  0.91040080  0.44538308  0.23700645    -0.62900
O411        O  0.91746161  0.52093204  0.24445348    -0.75400
O412        O  0.97504695  0.44608543  0.18645225    -0.74200
Cu413      Cu  0.98310236  0.47503307  0.26874321     1.04600
Cu414      Cu  0.94506712  0.48503604  0.21506441     1.04300
C415        C  0.00496304  0.43045687  0.20176388     0.92100
C416        C  0.92069336  0.52900430  0.27789450     0.91200
C417        C  0.91214833  0.42913984  0.26835742     0.83400
C418        C  0.01321287  0.53460692  0.21707196     0.89700
C419        C  0.91789482  0.31423345  0.36725599     0.79100
N420        N  0.91622036  0.35097433  0.38304073    -0.79200
C421        C  0.90465977  0.35445561  0.41772327     0.81500
N422        N  0.88033695  0.32510687  0.43123791    -0.79200
C423        C  0.88187613  0.28746910  0.41724345     0.81600
N424        N  0.90309974  0.28148795  0.38574616    -0.80900
C425        C  0.91534659  0.31814443  0.61497091     0.79100
N426        N  0.91834460  0.35186568  0.59455566    -0.79200
C427        C  0.90520802  0.35246288  0.56012575     0.81500
N428        N  0.87961044  0.32286481  0.54934517    -0.79200
C429        C  0.87660765  0.28804052  0.56818061     0.81600
N430        N  0.89687008  0.28468129  0.60060538    -0.80900
C431        C  0.11345719  0.27402577  0.42123708     0.79100
N432        N  0.11270983  0.31026190  0.43788730    -0.79200
C433        C  0.09235649  0.34126127  0.42331391     0.81500
N434        N  0.08317301  0.33928776  0.38808719    -0.79200
C435        C  0.08165883  0.30380561  0.37026194     0.81600
N436        N  0.09521426  0.26976427  0.38760934    -0.80900
C437        C  0.11360821  0.27533008  0.56938630     0.79100
N438        N  0.10893577  0.30885598  0.54915155    -0.79200
C439        C  0.08645797  0.33966595  0.56070410     0.81500
N440        N  0.07478078  0.33979989  0.59527595    -0.79200
C441        C  0.07732614  0.30699924  0.61675906     0.81600
N442        N  0.09517078  0.27296551  0.60308988    -0.80900
O443        O  0.03679885  0.31976873  0.45384384    -0.74100
O444        O  0.95170156  0.32490939  0.52256658    -0.75100
O445        O  0.95486447  0.32612642  0.45088786    -0.63700
O446        O  0.03432252  0.31867290  0.52508689    -0.72100
O447        O  0.04362279  0.38472233  0.52775816    -0.71700
O448        O  0.95565358  0.39267658  0.45065757    -0.62900
O449        O  0.95519231  0.39122663  0.52712822    -0.75400
O450        O  0.04533378  0.38591650  0.45213862    -0.74200
Cu451      Cu  0.99418298  0.32076185  0.48799296     1.04600
Cu452      Cu  0.00014074  0.39174933  0.48931220     1.04300
C453        C  0.05693424  0.35048831  0.44435443     0.92100
C454        C  0.93830185  0.35757392  0.53485318     0.91200
C455        C  0.93990980  0.35912129  0.44095132     0.83400
C456        C  0.05388713  0.34909407  0.53629977     0.89700
O457        O  0.95840163  0.28020062  0.32168835    -0.74100
O458        O  0.03902475  0.29997877  0.23777595    -0.75100
O459        O  0.04551814  0.27641912  0.31651053    -0.63700
O460        O  0.94999418  0.30110859  0.24610459    -0.72100
O461        O  0.96769275  0.36468095  0.24908212    -0.71700
O462        O  0.04040178  0.34014704  0.33176014    -0.62900
O463        O  0.05242991  0.35949616  0.26140319    -0.75400
O464        O  0.95800512  0.34644188  0.32403888    -0.74200
Cu465      Cu  0.99870790  0.28629627  0.27944250     1.04600
Cu466      Cu  0.00481132  0.35436666  0.29184065     1.04300
C467        C  0.94501685  0.31265268  0.33550423     0.92100
C468        C  0.05754560  0.33413285  0.23649783     0.91200
C469        C  0.05545136  0.30574272  0.33737628     0.83400
C470        C  0.94198277  0.33798969  0.23953756     0.89700
O471        O  0.87134034  0.15052296  0.45480571    -0.74100
O472        O  0.89246459  0.22944307  0.53518925    -0.75100
O473        O  0.86490595  0.14763367  0.53171815    -0.63700
O474        O  0.89687848  0.23180781  0.45615604    -0.72100
O475        O  0.83376576  0.25143235  0.45324566    -0.71700
O476        O  0.80177018  0.16719113  0.52875147    -0.62900
O477        O  0.82977247  0.25026634  0.53164474    -0.75400
O478        O  0.80789447  0.16877641  0.44994055    -0.74200
Cu479      Cu  0.88346566  0.18937668  0.49474264     1.04600
Cu480      Cu  0.81603910  0.21020303  0.49097427     1.04300
C481        C  0.83698236  0.14667650  0.43983560     0.92100
C482        C  0.86494741  0.25289196  0.54575510     0.91200
C483        C  0.82810380  0.14307173  0.54096018     0.83400
C484        C  0.87003843  0.25434853  0.44223942     0.89700
O485        O  0.20453778  0.16711317  0.45530370    -0.74100
O486        O  0.16588230  0.24404307  0.53523565    -0.75100
O487        O  0.20771162  0.16784402  0.53442431    -0.63700
O488        O  0.16476642  0.24345357  0.45650803    -0.72100
O489        O  0.10527666  0.21327914  0.45721083    -0.71700
O490        O  0.14864315  0.13681372  0.53592689    -0.62900
O491        O  0.10700994  0.21275005  0.53728384    -0.75400
O492        O  0.14508348  0.13689565  0.45810442    -0.74200
Cu493      Cu  0.18766340  0.20673506  0.49544591     1.04600
Cu494      Cu  0.12448320  0.17394684  0.49727687     1.04300
C495        C  0.18029112  0.13940299  0.44450424     0.92100
C496        C  0.13033983  0.24092836  0.54846122     0.91200
C497        C  0.18534528  0.13935842  0.54644416     0.83400
C498        C  0.12882863  0.24057496  0.44438172     0.89700
O499        O  0.84868839  0.44748217  0.17015828    -0.74100
O500        O  0.79519853  0.54477181  0.11873774    -0.75100
O501        O  0.85511925  0.53831458  0.17706934    -0.63700
O502        O  0.78788014  0.45698999  0.11435390    -0.72100
O503        O  0.74084096  0.45949307  0.15655401    -0.71700
O504        O  0.80576020  0.53598242  0.21687216    -0.62900
O505        O  0.74791228  0.54397757  0.16074193    -0.75400
O506        O  0.79969899  0.44896267  0.21028078    -0.74200
Cu507      Cu  0.82380301  0.49699963  0.14361898     1.04600
Cu508      Cu  0.77242140  0.49717325  0.18745831     1.04300
C509        C  0.83121815  0.43204086  0.19798092     0.92100
C510        C  0.76214570  0.55832588  0.13116852     0.91200
C511        C  0.83979173  0.55028645  0.20718106     0.83400
C512        C  0.75310506  0.44635811  0.12621953     0.89700
O513        O  0.25593430  0.52469103  0.17265789    -0.74100
O514        O  0.16529871  0.44575837  0.19921299    -0.75100
O515        O  0.24239812  0.43789961  0.16612408    -0.63700
O516        O  0.17608574  0.53263580  0.20609560    -0.72100
O517        O  0.14707580  0.53772516  0.15211342    -0.71700
O518        O  0.22044507  0.45612310  0.11202995    -0.62900
O519        O  0.14227804  0.45390619  0.14326829    -0.75400
O520        O  0.22187114  0.54110454  0.12323730    -0.74200
Cu521      Cu  0.21133379  0.48554946  0.18837945     1.04600
Cu522      Cu  0.18241410  0.49763031  0.13112963     1.04300
C523        C  0.25346902  0.54360333  0.14246313     0.92100
C524        C  0.13984629  0.43685475  0.17429651     0.91200
C525        C  0.23913407  0.43108483  0.13199932     0.83400
C526        C  0.14951532  0.54811407  0.18514646     0.89700
O527        O  0.70673212  0.24527813  0.94581726    -0.74100
O528        O  0.72769384  0.32004417  0.03313309    -0.75100
O529        O  0.70653719  0.23484710  0.02736999    -0.63700
O530        O  0.72802115  0.32731493  0.95389774    -0.72100
O531        O  0.66294234  0.33781158  0.95952447    -0.71700
O532        O  0.64149940  0.24691883  0.02488825    -0.62900
O533        O  0.66161211  0.32549727  0.03403640    -0.75400
O534        O  0.64248381  0.26110698  0.94622603    -0.74200
Cu535      Cu  0.71999763  0.28079895  0.99022394     1.04600
Cu536      Cu  0.65042567  0.29299225  0.99133632     1.04300
C537        C  0.67193039  0.24465555  0.93055215     0.92100
C538        C  0.69603872  0.33568119  0.04622838     0.91200
C539        C  0.67060782  0.22776288  0.03872254     0.83400
C540        C  0.69655749  0.34646397  0.94490888     0.89700
O541        O  0.79090051  0.45894028  0.77436259    -0.74100
O542        O  0.73976540  0.55276336  0.82682312    -0.75100
O543        O  0.79353220  0.54685417  0.76815264    -0.63700
O544        O  0.73513068  0.46829872  0.82980506    -0.72100
O545        O  0.78338277  0.46670935  0.87117184    -0.71700
O546        O  0.84518488  0.55015257  0.80570718    -0.62900
O547        O  0.78937115  0.55491766  0.86680003    -0.75400
O548        O  0.84137801  0.45809833  0.81316219    -0.74200
Cu549      Cu  0.76369235  0.50678696  0.79847063     1.04600
Cu550      Cu  0.81709568  0.50762684  0.84052612     1.04300
C551        C  0.82278879  0.44192429  0.78616668     0.92100
C552        C  0.75531418  0.56760049  0.85579528     0.91200
C553        C  0.82740262  0.56239898  0.77664359     0.83400
C554        C  0.74851649  0.45532514  0.85983462     0.89700
O555        O  0.95443023  0.35300011  0.65730221    -0.74100
O556        O  0.04514907  0.36871367  0.72422701    -0.75100
O557        O  0.03731304  0.34585644  0.65406999    -0.63700
O558        O  0.95960688  0.37565629  0.73102843    -0.72100
O559        O  0.94273525  0.31215649  0.73825559    -0.71700
O560        O  0.04033740  0.28266605  0.67155682    -0.62900
O561        O  0.03063840  0.31015526  0.74944740    -0.75400
O562        O  0.95321971  0.28704351  0.66402309    -0.74200
Cu563      Cu  0.99944300  0.36241972  0.69135907     1.04600
Cu564      Cu  0.99221207  0.29499446  0.70697256     1.04300
C565        C  0.94107790  0.31859386  0.64771626     0.92100
C566        C  0.04821630  0.34471862  0.75062548     0.91200
C567        C  0.05156681  0.31089214  0.64988526     0.83400
C568        C  0.93444911  0.34939481  0.74254497     0.89700
O569        O  0.19924564  0.55388258  0.87401005    -0.74100
O570        O  0.12206958  0.46671877  0.84723203    -0.75100
O571        O  0.19838010  0.46812693  0.88181147    -0.63700
O572        O  0.12533180  0.55048620  0.84002573    -0.72100
O573        O  0.15756689  0.54744707  0.78765185    -0.71700
O574        O  0.22495974  0.45316507  0.82874754    -0.62900
O575        O  0.14896366  0.46040532  0.79265671    -0.75400
O576        O  0.23619768  0.54073078  0.82577779    -0.74200
Cu577      Cu  0.16072021  0.51021573  0.86230085     1.04600
Cu578      Cu  0.19342908  0.50087290  0.80648203     1.04300
C579        C  0.23181112  0.55807946  0.85654736     0.92100
C580        C  0.12198505  0.45061035  0.81584971     0.91200
C581        C  0.21948399  0.44463892  0.86229569     0.83400
C582        C  0.12897248  0.56135445  0.80710630     0.89700
O583        O  0.39111869  0.30676935  0.94793591    -0.74100
O584        O  0.32360676  0.34949812  0.03279756    -0.75100
O585        O  0.39406000  0.30103828  0.02608549    -0.63700
O586        O  0.31828471  0.35482259  0.94970003    -0.72100
O587        O  0.28372187  0.29800582  0.94839575    -0.71700
O588        O  0.35587173  0.24627627  0.02396693    -0.62900
O589        O  0.28700257  0.29398805  0.02915078    -0.75400
O590        O  0.35568794  0.25020533  0.94599442    -0.74200
Cu591      Cu  0.35775460  0.33025552  0.98908374     1.04600
Cu592      Cu  0.31903061  0.27066323  0.98671545     1.04300
C593        C  0.38568305  0.27139340  0.93513947     0.92100
C594        C  0.29570649  0.32688041  0.04577888     0.91200
C595        C  0.38681495  0.26476836  0.03617985     0.83400
C596        C  0.28926971  0.33365526  0.93607433     0.89700
O597        O  0.47285574  0.15775733  0.74957310    -0.74100
O598        O  0.56743240  0.20860849  0.80845559    -0.75100
O599        O  0.55888081  0.14655023  0.75646172    -0.63700
O600        O  0.48068937  0.22507261  0.80172694    -0.72100
O601        O  0.46258692  0.17840990  0.84143097    -0.71700
O602        O  0.54678507  0.10575849  0.80285923    -0.62900
O603        O  0.54759520  0.16850529  0.85301671    -0.75400
O604        O  0.46369615  0.11512325  0.79513822    -0.74200
Cu605      Cu  0.51980231  0.18660154  0.77717291     1.04600
Cu606      Cu  0.50465127  0.14104214  0.82443049     1.04300
C607        C  0.45510778  0.12682683  0.76345886     0.92100
C608        C  0.57359878  0.19272892  0.83970151     0.91200
C609        C  0.56558065  0.11397529  0.77351406     0.83400
C610        C  0.46115562  0.21454089  0.83014787     0.89700
O611        O  0.56809250  0.18687727  0.22601366    -0.74100
O612        O  0.48160547  0.21923269  0.15434377    -0.75100
O613        O  0.47955166  0.19445572  0.22981536    -0.63700
O614        O  0.56900652  0.20659872  0.15064943    -0.72100
O615        O  0.55720691  0.14237780  0.13961934    -0.71700
O616        O  0.47194388  0.13057885  0.21501032    -0.62900
O617        O  0.47264591  0.15475103  0.14195110    -0.75400
O618        O  0.56065042  0.12248394  0.21296551    -0.74200
Cu619      Cu  0.52465925  0.20420700  0.19098900     1.04600
Cu620      Cu  0.51510309  0.13562252  0.17708620     1.04300
C621        C  0.57969075  0.15070004  0.22959648     0.92100
C622        C  0.46478142  0.19166800  0.13555921     0.91200
C623        C  0.46103605  0.16045148  0.23382162     0.83400
C624        C  0.57743325  0.17430217  0.13334781     0.89700
O625        O  0.36164209  0.96751090  0.68737704    -0.74100
O626        O  0.29737511  0.05097590  0.63347604    -0.75100
O627        O  0.34747554  0.05320684  0.69060143    -0.63700
O628        O  0.31138979  0.96833670  0.62628617    -0.72100
O629        O  0.25760623  0.95053732  0.65755274    -0.71700
O630        O  0.30486256  0.03266919  0.73279060    -0.62900
O631        O  0.24574098  0.03753336  0.66919747    -0.75400
O632        O  0.30991590  0.94818007  0.72084858    -0.74200
Cu633      Cu  0.33075354  0.01062762  0.65867709     1.04600
Cu634      Cu  0.27693563  0.99269083  0.69676254     1.04300
C635        C  0.34617002  0.94324425  0.71087067     0.92100
C636        C  0.26047059  0.05535093  0.64116706     0.91200
C637        C  0.33690067  0.05199583  0.72333756     0.83400
C638        C  0.28098466  0.94529650  0.63031079     0.89700
O639        O  0.55253858  0.82356104  0.78112996    -0.74100
O640        O  0.46818575  0.79371908  0.85732894    -0.75100
O641        O  0.46142915  0.81938741  0.78252527    -0.63700
O642        O  0.55481435  0.80016538  0.85551040    -0.72100
O643        O  0.55257648  0.86462012  0.86956349    -0.71700
O644        O  0.45853213  0.88273606  0.79901871    -0.62900
O645        O  0.46747077  0.85734560  0.87427257    -0.75400
O646        O  0.55154409  0.88772167  0.79528090    -0.74200
Cu647      Cu  0.50923920  0.80724364  0.81810256     1.04600
Cu648      Cu  0.50725899  0.87539073  0.83462937     1.04300
C649        C  0.56780016  0.85891838  0.77761074     0.92100
C650        C  0.45633424  0.82070737  0.87919314     0.91200
C651        C  0.44347723  0.85338566  0.78065900     0.83400
C652        C  0.56740731  0.82995403  0.87455153     0.89700
O653        O  0.34264905  0.63423848  0.95818113    -0.74100
O654        O  0.39352418  0.70285640  0.03464814    -0.75100
O655        O  0.35401477  0.62610992  0.03290071    -0.63700
O656        O  0.38126237  0.70912385  0.95824739    -0.72100
O657        O  0.32755215  0.74347713  0.97353124    -0.71700
O658        O  0.29528385  0.65366583  0.04431538    -0.62900
O659        O  0.33697324  0.73035347  0.05224495    -0.75400
O660        O  0.28464567  0.66426041  0.96697862    -0.74200
Cu661      Cu  0.36951091  0.66757849  0.99556719     1.04600
Cu662      Cu  0.30871959  0.69944972  0.00914266     1.04300
C663        C  0.30536782  0.63687473  0.95147220     0.92100
C664        C  0.37452565  0.72450632  0.05743701     0.91200
C665        C  0.32022230  0.62531746  0.04913696     0.83400
C666        C  0.36087832  0.74099092  0.95637184     0.89700
O667        O  0.56299791  0.79504691  0.18616921    -0.74100
O668        O  0.47550186  0.85149495  0.24287341    -0.75100
O669        O  0.47447707  0.78944696  0.18859863    -0.63700
O670        O  0.56064974  0.85396086  0.23976235    -0.72100
O671        O  0.55578823  0.90164882  0.19815061    -0.71700
O672        O  0.47002970  0.83157692  0.14270195    -0.62900
O673        O  0.46878661  0.89623349  0.19903056    -0.75400
O674        O  0.56221320  0.84087410  0.14297195    -0.74200
Cu675      Cu  0.51820490  0.82085271  0.21528982     1.04600
Cu676      Cu  0.51382095  0.86905058  0.16878509     1.04300
C677        C  0.57896378  0.81026831  0.15754098     0.92100
C678        C  0.45998542  0.88395165  0.23114780     0.91200
C679        C  0.45834978  0.79872896  0.15815507     0.83400
C680        C  0.57103131  0.88834476  0.22779092     0.89700
O681        O  0.32897272  0.97970997  0.26916376    -0.74100
O682        O  0.24227216  0.05581274  0.30884559    -0.75100
O683        O  0.32208475  0.06868600  0.27232211    -0.63700
O684        O  0.25397887  0.96734186  0.30692920    -0.72100
O685        O  0.27042028  0.98537593  0.36249421    -0.71700
O686        O  0.35436005  0.05817959  0.32367125    -0.62900
O687        O  0.28135862  0.07014160  0.35559765    -0.75400
O688        O  0.34310191  0.97461382  0.32754095    -0.74200
Cu689      Cu  0.28497960  0.01840633  0.28645328     1.04600
Cu690      Cu  0.31313278  0.02217909  0.34355170     1.04300
C691        C  0.34909410  0.96360469  0.29477649     0.92100
C692        C  0.24776136  0.07314466  0.33967032     0.91200
C693        C  0.35081988  0.07807174  0.29441258     0.83400
C694        C  0.25444867  0.95973463  0.34126106     0.89700
O695        O  0.11654761  0.82414100  0.52949563    -0.74100
O696        O  0.17956637  0.87274945  0.44420829    -0.75100
O697        O  0.10911286  0.82499576  0.45208162    -0.63700
O698        O  0.18925201  0.87048896  0.52744858    -0.72100
O699        O  0.22301454  0.81428251  0.52239518    -0.71700
O700        O  0.14525261  0.76981780  0.44830831    -0.62900
O701        O  0.21427748  0.81692557  0.44188855    -0.75400
O702        O  0.15119898  0.76806969  0.52546024    -0.74200
Cu703      Cu  0.14774789  0.85042416  0.48857291     1.04600
Cu704      Cu  0.18496619  0.79079192  0.48455095     1.04300
C705        C  0.12257902  0.78796135  0.53931591     0.92100
C706        C  0.20497294  0.85075937  0.42768229     0.91200
C707        C  0.11495463  0.79011672  0.43874669     0.83400
C708        C  0.21788457  0.84788517  0.53832334     0.89700
O709        O  0.06841340  0.63973742  0.26985596    -0.74100
O710        O  0.98287471  0.66298033  0.33996783    -0.75100
O711        O  0.98513946  0.61909174  0.27597766    -0.63700
O712        O  0.06523621  0.68461676  0.33073404    -0.72100
O713        O  0.04633817  0.73776656  0.29925234    -0.71700
O714        O  0.95922152  0.67152570  0.24784444    -0.62900
O715        O  0.96303084  0.71812014  0.31200352    -0.75400
O716        O  0.04378636  0.68533857  0.23255141    -0.74200
Cu717      Cu  0.02635260  0.65023119  0.30484223     1.04600
Cu718      Cu  0.00350404  0.70571209  0.27123656     1.04300
C719        C  0.06598081  0.65468538  0.23845084     0.92100
C720        C  0.95871007  0.69223262  0.33750101     0.91200
C721        C  0.95670652  0.63488077  0.25749885     0.83400
C722        C  0.06307699  0.72243437  0.32725744     0.89700
O723        O  0.77807991  0.80322521  0.43621561    -0.74100
O724        O  0.81464487  0.73337344  0.52021196    -0.75100
O725        O  0.76764938  0.80102763  0.51499638    -0.63700
O726        O  0.82244763  0.73537909  0.44072991    -0.72100
O727        O  0.87765926  0.77259524  0.44341103    -0.71700
O728        O  0.81907593  0.84271481  0.52205189    -0.62900
O729        O  0.86827003  0.77212140  0.52746516    -0.75400
O730        O  0.83152869  0.84289528  0.43950845    -0.74200
Cu731      Cu  0.79431433  0.76719655  0.47803839     1.04600
Cu732      Cu  0.85148803  0.80895144  0.48360078     1.04300
C733        C  0.79932480  0.83202472  0.42284227     0.92100
C734        C  0.84614532  0.74261776  0.53855828     0.91200
C735        C  0.78325194  0.83143320  0.53085910     0.83400
C736        C  0.85672618  0.74471267  0.42776816     0.89700
O737        O  0.71507345  0.05932928  0.27007880    -0.74100
O738        O  0.78413511  0.95971550  0.30149500    -0.75100
O739        O  0.70864475  0.97227315  0.26622739    -0.63700
O740        O  0.79571895  0.04968418  0.30476921    -0.72100
O741        O  0.75692598  0.06165995  0.35186065    -0.71700
O742        O  0.69598476  0.96482912  0.32474763    -0.62900
O743        O  0.77148478  0.97716009  0.35751515    -0.75400
O744        O  0.68361834  0.04704395  0.32163990    -0.74200
Cu745      Cu  0.75298671  0.01080229  0.28282382     1.04600
Cu746      Cu  0.72634192  0.01260734  0.34036979     1.04300
C747        C  0.68615017  0.06677087  0.29213768     0.92100
C748        C  0.78377345  0.95065464  0.33551986     0.91200
C749        C  0.68820208  0.95623040  0.29175176     0.83400
C750        C  0.78949423  0.06768304  0.33503962     0.89700
O751        O  0.94852274  0.72370832  0.65941211    -0.74100
O752        O  0.02985118  0.69609754  0.74178528    -0.75100
O753        O  0.03373560  0.74139997  0.67004494    -0.63700
O754        O  0.94462707  0.68417401  0.72776818    -0.72100
O755        O  0.96835357  0.62776894  0.70517118    -0.71700
O756        O  0.04944598  0.68368234  0.64441167    -0.62900
O757        O  0.05233842  0.64570910  0.70904560    -0.75400
O758        O  0.96651747  0.66502503  0.63741825    -0.74200
Cu759      Cu  0.98971560  0.71411476  0.70122073     1.04600
Cu760      Cu  0.00995730  0.65417756  0.67344760     1.04300
C761        C  0.94317599  0.69508382  0.63658356     0.92100
C762        C  0.05060373  0.66389150  0.73900299     0.91200
C763        C  0.05115562  0.72174214  0.64484248     0.83400
C764        C  0.94080943  0.64662746  0.72199698     0.89700
O765        O  0.67161524  0.05265697  0.67950218    -0.74100
O766        O  0.70309989  0.96644838  0.61392248    -0.75100
O767        O  0.65056553  0.96775383  0.67314476    -0.63700
O768        O  0.72370085  0.04791884  0.62243466    -0.72100
O769        O  0.77289890  0.02965535  0.65910765    -0.71700
O770        O  0.69932626  0.94608412  0.70868578    -0.62900
O771        O  0.75361742  0.94396544  0.64657908    -0.75400
O772        O  0.71349651  0.02936416  0.72080786    -0.74200
Cu773      Cu  0.68596028  0.00941291  0.64633078     1.04600
Cu774      Cu  0.73727914  0.98743338  0.68536526     1.04300
C775        C  0.68217227  0.04957538  0.71233362     0.92100
C776        C  0.73110882  0.94123104  0.61828970     0.91200
C777        C  0.66298898  0.94347966  0.69778803     0.83400
C778        C  0.76054260  0.04966500  0.63156223     0.89700
O779        O  0.65673775  0.74907716  0.95513973    -0.74100
O780        O  0.67848951  0.68798245  0.04347480    -0.75100
O781        O  0.65130281  0.76644266  0.03118902    -0.63700
O782        O  0.68173649  0.67515375  0.96992567    -0.72100
O783        O  0.74090529  0.70037779  0.95560982    -0.71700
O784        O  0.71426685  0.77126331  0.04808783    -0.62900
O785        O  0.74413603  0.69097878  0.03645286    -0.75400
O786        O  0.71156343  0.78430524  0.96708800    -0.74200
Cu787      Cu  0.66560992  0.71916788  0.99994772     1.04600
Cu788      Cu  0.73140845  0.73842092  0.00135479     1.04300
C789        C  0.67767155  0.78046779  0.95045442     0.92100
C790        C  0.71325049  0.67557742  0.05209112     0.91200
C791        C  0.67681813  0.77641852  0.05535858     0.83400
C792        C  0.71266626  0.67439715  0.94982940     0.89700
loop_ 
_geom_bond_atom_site_label_1 
_geom_bond_atom_site_label_2 
_geom_bond_distance 
_geom_bond_site_symmetry_2 
_ccdc_geom_bond_type 
C1            N2   1.359       .  A
C1            N6   1.405       .  A
C1          C748   1.506       .  S
N2            C3   1.340       .  A
C3            N4   1.349       .  A
C3           C36   1.498       .  S
N4            C5   1.365       .  A
C5            N6   1.407       .  A
C5          C733   1.513       .  S
C7            N8   1.362       .  A
C7           N12   1.395       .  A
C7          C776   1.504       .  S
N8            C9   1.334       .  A
C9           N10   1.346       .  A
C9           C38   1.465       .  S
N10          C11   1.361       .  A
C11          N12   1.396       .  A
C11         C735   1.505       .  S
C13          N14   1.374       .  A
C13          N18   1.350       .  A
C13         C481   1.479       .  S
N14          C15   1.380       .  A
C15          N16   1.350       .  A
C15         C750   1.457       .  S
N16          C17   1.340       .  A
C17          N18   1.349       .  A
C17          C37   1.449       .  S
C19          N20   1.383       .  A
C19          N24   1.352       .  A
C19         C483   1.486       .  S
N20          C21   1.383       .  A
C21          N22   1.345       .  A
C21         C778   1.470       .  S
N22          C23   1.334       .  A
C23          N24   1.346       .  A
C23          C35   1.432       .  S
O25         Cu33   1.953       .  S
O25          C35   1.267   1_565  A
O26         Cu33   1.914       .  S
O26          C36   1.274       .  A
O27         Cu33   1.964       .  S
O27          C37   1.266   1_565  A
O28         Cu33   1.908       .  S
O28          C38   1.272       .  A
O29         Cu34   2.024       .  S
O29          C38   1.275       .  A
O30         Cu34   2.013   1_545  S
O30          C37   1.285       .  A
O31         Cu34   2.037       .  S
O31          C36   1.273       .  A
O32         Cu34   1.998   1_545  S
O32          C35   1.280       .  A
Cu33        Cu34   2.377       .  S
C39          N40   1.385       .  A
C39          N44   1.365       .  A
C39         C720   1.486       .  S
N40          C41   1.382       .  A
C41          N42   1.364       .  A
C41         C736   1.508       .  S
N42          C43   1.354       .  A
C43          N44   1.349       .  A
C43          C76   1.476       .  S
C45          N46   1.388       .  A
C45          N50   1.365       .  A
C45         C761   1.499       .  S
N46          C47   1.391       .  A
C47          N48   1.370       .  A
C47         C734   1.522       .  S
N48          C49   1.364       .  A
C49          N50   1.345       .  A
C49          C74   1.473       .  S
C51          N52   1.356       .  A
C51          N56   1.375       .  A
C51         C707   1.465       .  S
N52          C53   1.349       .  A
C53          N54   1.328       .  A
C53          C73   1.433   1_455  S
N54          C55   1.344       .  A
C55          N56   1.369       .  A
C55         C722   1.451       .  S
C57          N58   1.355       .  A
C57          N62   1.380       .  A
C57         C705   1.469       .  S
N58          C59   1.344       .  A
C59          N60   1.329       .  A
C59          C75   1.430       .  S
N60          C61   1.345       .  A
C61          N62   1.375       .  A
C61         C763   1.458       .  S
O63         Cu71   1.924       .  S
O63          C73   1.263       .  A
O64         Cu71   1.827       .  S
O64          C74   1.258       .  A
O65         Cu71   1.943       .  S
O65          C75   1.266   1_655  A
O66         Cu71   1.934       .  S
O66          C76   1.267       .  A
O67         Cu72   2.032       .  S
O67          C76   1.276       .  A
O68         Cu72   2.010   1_455  S
O68          C75   1.282       .  A
O69         Cu72   2.073       .  S
O69          C74   1.280       .  A
O70         Cu72   2.019   1_455  S
O70          C73   1.282   1_455  A
Cu71        Cu72   2.321       .  S
C77          N78   1.364       .  A
C77          N82   1.399       .  A
C77         C694   1.496       .  S
N78          C79   1.344       .  A
C79          N80   1.354       .  A
C79         C114   1.495       .  S
N80          C81   1.364       .  A
C81          N82   1.400       .  A
C81         C706   1.517       .  S
C83          N84   1.364       .  A
C83          N88   1.389       .  A
C83         C638   1.498       .  S
N84          C85   1.339       .  A
C85          N86   1.358       .  A
C85         C111   1.475       .  S
N86          C87   1.366       .  A
C87          N88   1.394       .  A
C87         C708   1.511       .  S
C89          N90   1.355       .  A
C89          N94   1.379       .  A
C89         C495   1.493       .  S
N90          C91   1.352       .  A
C91          N92   1.335       .  A
C91         C112   1.447       .  S
N92          C93   1.346       .  A
C93          N94   1.382       .  A
C93         C692   1.464       .  S
C95          N96   1.391       .  A
C95         N100   1.354       .  A
C95         C497   1.493       .  S
N96          C97   1.388       .  A
C97          N98   1.341       .  A
C97         C636   1.478       .  S
N98          C99   1.328       .  A
C99         N100   1.344       .  A
C99         C113   1.427       .  S
O101       Cu109   2.057       .  S
O101        C111   1.278       .  A
O102       Cu109   2.027   1_545  S
O102        C112   1.287       .  A
O103       Cu109   2.003   1_545  S
O103        C113   1.280       .  A
O104       Cu109   2.034       .  S
O104        C114   1.274       .  A
O105       Cu110   1.923       .  S
O105        C114   1.271       .  A
O106       Cu110   1.942       .  S
O106        C113   1.265   1_565  A
O107       Cu110   1.947       .  S
O107        C112   1.264   1_565  A
O108       Cu110   1.859       .  S
O108        C111   1.263       .  A
Cu109      Cu110   2.357       .  S
C115        N116   1.360       .  A
C115        N120   1.387       .  A
C115        C678   1.507       .  S
N116        C117   1.357       .  A
C117        N118   1.320       .  A
C117        C150   1.445       .  S
N118        C119   1.343       .  A
C119        N120   1.386       .  A
C119        C691   1.483       .  S
C121        N122   1.376       .  A
C121        N126   1.343       .  A
C121        C749   1.457       .  S
N122        C123   1.378       .  A
C123        N124   1.352       .  A
C123        C680   1.473       .  S
N124        C125   1.349       .  A
C125        N126   1.320       .  A
C125        C151   1.424       .  S
C127        N128   1.393       .  A
C127        N132   1.362       .  A
C127        C623   1.503       .  S
N128        C129   1.384       .  A
C129        N130   1.362       .  A
C129        C693   1.507       .  S
N130        C131   1.345       .  A
C131        N132   1.360       .  A
C131        C152   1.472       .  S
C133        N134   1.363       .  A
C133        N138   1.382       .  A
C133        C747   1.501       .  S
N134        C135   1.348       .  A
C135        N136   1.350       .  A
C135        C149   1.466       .  S
N136        C137   1.357       .  A
C137        N138   1.387       .  A
C137        C621   1.491       .  S
O139       Cu147   2.037       .  S
O139        C149   1.278       .  A
O140       Cu147   2.026       .  S
O140        C150   1.283   1_545  A
O141       Cu147   2.010       .  S
O141        C151   1.279   1_545  A
O142       Cu147   2.071       .  S
O142        C152   1.283       .  A
O143       Cu148   1.894       .  S
O143        C152   1.267       .  A
O144       Cu148   1.893       .  S
O144        C151   1.264   1_545  A
O145       Cu148   1.918       .  S
O145        C150   1.268   1_545  A
O146       Cu148   1.916       .  S
O146        C149   1.272       .  A
Cu147      Cu148   2.373       .  S
C153        N154   1.358       .  A
C153        N158   1.379       .  A
C153        C650   1.494       .  S
N154        C155   1.355       .  A
C155        N156   1.336       .  A
C155        C190   1.449   1_556  S
N156        C157   1.345       .  A
C157        N158   1.380       .  A
C157        C666   1.464       .  S
C159        N160   1.382       .  A
C159        N164   1.352       .  A
C159        C789   1.463       .  S
N160        C161   1.376       .  A
C161        N162   1.350       .  A
C161        C652   1.483       .  S
N162        C163   1.348       .  A
C163        N164   1.343       .  A
C163        C187   1.449       .  S
C165        N166   1.363       .  A
C165        N170   1.410       .  A
C165        C679   1.529       .  S
N166        C167   1.349       .  A
C167        N168   1.334       .  A
C167        C188   1.486       .  S
N168        C169   1.359       .  A
C169        N170   1.411       .  A
C169        C664   1.510       .  S
C171        N172   1.359       .  A
C171        N176   1.405       .  A
C171        C791   1.503       .  S
N172        C173   1.341       .  A
C173        N174   1.354       .  A
C173        C189   1.496       .  S
N174        C175   1.366       .  A
C175        N176   1.407       .  A
C175        C677   1.523       .  S
O177       Cu185   1.962       .  S
O177        C187   1.265   1_554  A
O178       Cu185   1.919       .  S
O178        C188   1.273       .  A
O179       Cu185   1.898       .  S
O179        C189   1.272       .  A
O180       Cu185   1.968       .  S
O180        C190   1.268       .  A
O181       Cu186   2.018   1_556  S
O181        C190   1.284   1_556  A
O182       Cu186   2.042       .  S
O182        C189   1.274       .  A
O183       Cu186   2.028       .  S
O183        C188   1.276       .  A
O184       Cu186   2.021   1_556  S
O184        C187   1.285       .  A
Cu185      Cu186   2.372       .  S
C191        N192   1.374       .  A
C191        N196   1.401       .  A
C191        C651   1.547       .  S
N192        C193   1.373       .  A
C193        N194   1.343       .  A
C193        C225   1.481       .  S
N194        C195   1.360       .  A
C195        N196   1.399       .  A
C195        C635   1.502       .  S
C197        N198   1.361       .  A
C197        N202   1.396       .  A
C197        C777   1.497       .  S
N198        C199   1.348       .  A
C199        N200   1.361       .  A
C199        C228   1.477       .  S
N200        C201   1.366       .  A
C201        N202   1.393       .  A
C201        C649   1.532       .  S
C203        N204   1.372       .  A
C203        N208   1.355       .  A
C203        C607   1.463       .  S
N204        C205   1.373       .  A
C205        N206   1.357       .  A
C205        C637   1.457       .  S
N206        C207   1.348       .  A
C207        N208   1.349       .  A
C207        C227   1.450   1_545  S
C209        N210   1.350       .  A
C209        N214   1.378       .  A
C209        C775   1.460       .  S
N210        C211   1.334       .  A
C211        N212   1.340       .  A
C211        C226   1.432   1_545  S
N212        C213   1.348       .  A
C213        N214   1.378       .  A
C213        C609   1.468       .  S
O215       Cu223   1.790       .  S
O215        C225   1.251       .  A
O216       Cu223   1.917       .  S
O216        C226   1.260       .  A
O217       Cu223   1.965       .  S
O217        C227   1.269       .  A
O218       Cu223   1.904       .  S
O218        C228   1.265       .  A
O219       Cu224   2.029       .  S
O219        C228   1.276       .  A
O220       Cu224   2.030       .  S
O220        C227   1.283       .  A
O221       Cu224   2.032       .  S
O221        C226   1.285       .  A
O222       Cu224   2.079       .  S
O222        C225   1.279       .  A
Cu223      Cu224   2.349       .  S
C229        N230   1.359       .  A
C229        N234   1.380       .  A
C229        C593   1.497       .  S
N230        C231   1.355       .  A
C231        N232   1.329       .  A
C231        C264   1.443       .  S
N232        C233   1.341       .  A
C233        N234   1.382       .  A
C233        C610   1.460       .  S
C235        N236   1.358       .  A
C235        N240   1.391       .  A
C235        C537   1.485       .  S
N236        C237   1.351       .  A
C237        N238   1.347       .  A
C237        C266   1.483       .  S
N238        C239   1.362       .  A
C239        N240   1.383       .  A
C239        C608   1.492       .  S
C241        N242   1.351       .  A
C241        N246   1.386       .  A
C241        C595   1.485       .  S
N242        C243   1.345       .  A
C243        N244   1.327       .  A
C243        C265   1.417       .  S
N244        C245   1.339       .  A
C245        N246   1.385       .  A
C245        C622   1.473       .  S
C247        N248   1.366       .  A
C247        N252   1.384       .  A
C247        C539   1.499       .  S
N248        C249   1.366       .  A
C249        N250   1.352       .  A
C249        C263   1.467       .  S
N250        C251   1.364       .  A
C251        N252   1.376       .  A
C251        C624   1.499       .  S
O253       Cu261   1.857   1_554  S
O253        C263   1.259       .  A
O254       Cu261   1.914       .  S
O254        C264   1.260       .  A
O255       Cu261   1.949   1_554  S
O255        C265   1.271       .  A
O256       Cu261   1.965       .  S
O256        C266   1.277       .  A
O257       Cu262   2.009       .  S
O257        C266   1.273       .  A
O258       Cu262   1.973   1_554  S
O258        C265   1.273       .  A
O259       Cu262   2.050       .  S
O259        C264   1.289       .  A
O260       Cu262   2.071   1_554  S
O260        C263   1.282       .  A
Cu261      Cu262   2.349       .  S
C267        N268   1.370       .  A
C267        N272   1.406       .  A
C267        C596   1.534       .  S
N268        C269   1.361       .  A
C269        N270   1.336       .  A
C269        C301   1.490       .  S
N270        C271   1.360       .  A
C271        N272   1.405       .  A
C271        C581   1.501       .  S
C273        N274   1.356       .  A
C273        N278   1.376       .  A
C273        C663   1.485       .  S
N274        C275   1.350       .  A
C275        N276   1.335       .  A
C275        C303   1.445       .  S
N276        C277   1.348       .  A
C277        N278   1.380       .  A
C277        C579   1.457       .  S
C279        N280   1.365       .  A
C279        N284   1.404       .  A
C279        C594   1.519       .  S
N280        C281   1.354       .  A
C281        N282   1.340       .  A
C281        C304   1.495       .  S
N282        C283   1.361       .  A
C283        N284   1.402       .  A
C283        C525   1.494       .  S
C285        N286   1.371       .  A
C285        N290   1.355       .  A
C285        C665   1.478       .  S
N286        C287   1.375       .  A
C287        N288   1.348       .  A
C287        C523   1.449       .  S
N288        C289   1.337       .  A
C289        N290   1.352       .  A
C289        C302   1.450       .  S
O291       Cu299   2.057   1_556  S
O291        C301   1.278       .  A
O292       Cu299   2.040       .  S
O292        C302   1.289       .  A
O293       Cu299   2.009   1_556  S
O293        C303   1.282       .  A
O294       Cu299   2.029       .  S
O294        C304   1.274       .  A
O295       Cu300   1.910   1_554  S
O295        C304   1.272       .  A
O296       Cu300   1.969       .  S
O296        C303   1.268       .  A
O297       Cu300   1.944   1_554  S
O297        C302   1.262       .  A
O298       Cu300   1.857       .  S
O298        C301   1.263       .  A
Cu299      Cu300   2.367   1_554  S
C305        N306   1.366       .  A
C305        N310   1.410       .  A
C305        C551   1.529       .  S
N306        C307   1.354       .  A
C307        N308   1.340       .  A
C307        C341   1.501       .  S
N308        C309   1.360       .  A
C309        N310   1.410       .  A
C309        C568   1.502       .  S
C311        N312   1.360       .  A
C311        N316   1.394       .  A
C311        C764   1.478       .  S
N312        C313   1.335       .  A
C313        N314   1.357       .  A
C313        C340   1.483       .  S
N314        C315   1.369       .  A
C315        N316   1.394       .  A
C315        C553   1.510       .  S
C317        N318   1.372       .  A
C317        N322   1.353       .  A
C317        C580   1.479       .  S
N318        C319   1.377       .  A
C319        N320   1.351       .  A
C319        C566   1.457       .  S
N320        C321   1.342       .  A
C321        N322   1.350       .  A
C321        C339   1.455   1_455  S
C323        N324   1.353       .  A
C323        N328   1.382       .  A
C323        C762   1.464       .  S
N324        C325   1.341       .  A
C325        N326   1.345       .  A
C325        C342   1.446   1_455  S
N326        C327   1.352       .  A
C327        N328   1.377       .  A
C327        C582   1.480       .  S
O329       Cu337   1.965       .  S
O329        C339   1.265       .  A
O330       Cu337   1.870       .  S
O330        C340   1.267       .  A
O331       Cu337   1.908       .  S
O331        C341   1.272       .  A
O332       Cu337   1.969       .  S
O332        C342   1.268       .  A
O333       Cu338   2.016       .  S
O333        C342   1.282       .  A
O334       Cu338   2.034       .  S
O334        C341   1.274       .  A
O335       Cu338   2.039       .  S
O335        C340   1.276       .  A
O336       Cu338   2.035       .  S
O336        C339   1.288       .  A
Cu337      Cu338   2.368       .  S
C343        N344   1.361       .  A
C343        N348   1.378       .  A
C343        C554   1.480       .  S
N344        C345   1.352       .  A
C345        N346   1.333       .  A
C345        C380   1.447       .  S
N346        C347   1.356       .  A
C347        N348   1.378       .  A
C347        C540   1.474       .  S
C349        N350   1.388       .  A
C349        N354   1.355       .  A
C349        C792   1.507       .  S
N350        C351   1.393       .  A
C351        N352   1.357       .  A
C351        C552   1.499       .  S
N352        C353   1.348       .  A
C353        N354   1.330       .  A
C353        C377   1.450       .  S
C355        N356   1.377       .  A
C355        N360   1.357       .  A
C355        C512   1.481       .  S
N356        C357   1.376       .  A
C357        N358   1.353       .  A
C357        C538   1.474       .  S
N358        C359   1.333       .  A
C359        N360   1.353       .  A
C359        C378   1.446       .  S
C361        N362   1.349       .  A
C361        N366   1.384       .  A
C361        C790   1.486       .  S
N362        C363   1.327       .  A
C363        N364   1.351       .  A
C363        C379   1.439       .  S
N364        C365   1.356       .  A
C365        N366   1.387       .  A
C365        C510   1.494       .  S
O367       Cu375   2.043       .  S
O367        C377   1.281       .  A
O368       Cu375   2.040   1_554  S
O368        C378   1.281       .  A
O369       Cu375   2.033   1_554  S
O369        C379   1.280       .  A
O370       Cu375   2.039       .  S
O370        C380   1.280       .  A
O371       Cu376   1.895       .  S
O371        C380   1.268       .  A
O372       Cu376   1.909   1_554  S
O372        C379   1.267       .  A
O373       Cu376   1.910   1_554  S
O373        C378   1.268       .  A
O374       Cu376   1.921       .  S
O374        C377   1.269       .  A
Cu375      Cu376   2.380       .  S
C381        N382   1.364       .  A
C381        N386   1.408       .  A
C381        C509   1.515       .  S
N382        C383   1.349       .  A
C383        N384   1.340       .  A
C383        C417   1.500       .  S
N384        C385   1.358       .  A
C385        N386   1.408       .  A
C385        C470   1.499       .  S
C387        N388   1.394       .  A
C387        N392   1.359       .  A
C387        C721   1.481       .  S
N388        C389   1.394       .  A
C389        N390   1.368       .  A
C389        C511   1.510       .  S
N390        C391   1.357       .  A
C391        N392   1.334       .  A
C391        C416   1.476       .  S
C393        N394   1.375       .  A
C393        N398   1.352       .  A
C393        C524   1.484       .  S
N394        C395   1.381       .  A
C395        N396   1.350       .  A
C395        C468   1.462       .  S
N396        C397   1.343       .  A
C397        N398   1.349       .  A
C397        C415   1.456       .  S
C399        N400   1.380       .  A
C399        N404   1.355       .  A
C399        C719   1.459       .  S
N400        C401   1.374       .  A
C401        N402   1.345       .  A
C401        C526   1.466       .  S
N402        C403   1.340       .  A
C403        N404   1.343       .  A
C403        C418   1.439       .  S
O405       Cu413   2.041   1_455  S
O405        C415   1.289       .  A
O406       Cu413   2.031       .  S
O406        C416   1.276       .  A
O407       Cu413   2.020       .  S
O407        C417   1.273       .  A
O408       Cu413   1.997   1_455  S
O408        C418   1.279       .  A
O409       Cu414   1.973       .  S
O409        C418   1.269   1_655  A
O410       Cu414   1.924       .  S
O410        C417   1.278       .  A
O411       Cu414   1.871       .  S
O411        C416   1.267       .  A
O412       Cu414   1.962       .  S
O412        C415   1.264   1_655  A
Cu413      Cu414   2.373       .  S
C419        N420   1.360       .  A
C419        N424   1.374       .  A
C419        C467   1.483       .  S
N420        C421   1.343       .  A
C421        N422   1.358       .  A
C421        C455   1.459       .  S
N422        C423   1.360       .  A
C423        N424   1.378       .  A
C423        C484   1.488       .  S
C425        N426   1.356       .  A
C425        N430   1.374       .  A
C425        C565   1.479       .  S
N426        C427   1.342       .  A
C427        N428   1.356       .  A
C427        C454   1.455       .  S
N428        C429   1.356       .  A
C429        N430   1.377       .  A
C429        C482   1.483       .  S
C431        N432   1.358       .  A
C431        N436   1.386       .  A
C431        C498   1.499       .  S
N432        C433   1.355       .  A
C433        N434   1.335       .  A
C433        C453   1.452       .  S
N434        C435   1.355       .  A
C435        N436   1.384       .  A
C435        C469   1.495       .  S
C437        N438   1.354       .  A
C437        N442   1.390       .  A
C437        C496   1.499       .  S
N438        C439   1.351       .  A
C439        N440   1.334       .  A
C439        C456   1.446       .  S
N440        C441   1.354       .  A
C441        N442   1.386       .  A
C441        C567   1.503       .  S
O443       Cu451   1.903   1_455  S
O443        C453   1.267       .  A
O444       Cu451   1.916       .  S
O444        C454   1.269       .  A
O445       Cu451   1.902       .  S
O445        C455   1.268       .  A
O446       Cu451   1.913   1_455  S
O446        C456   1.268       .  A
O447       Cu452   2.041       .  S
O447        C456   1.281       .  A
O448       Cu452   2.055   1_655  S
O448        C455   1.281       .  A
O449       Cu452   2.051   1_655  S
O449        C454   1.281       .  A
O450       Cu452   2.052       .  S
O450        C453   1.282       .  A
Cu451      Cu452   2.375   1_655  S
O457       Cu465   2.069       .  S
O457        C467   1.284       .  A
O458       Cu465   2.091   1_455  S
O458        C468   1.290       .  A
O459       Cu465   2.101   1_455  S
O459        C469   1.285       .  A
O460       Cu465   2.099       .  S
O460        C470   1.286       .  A
O461       Cu466   2.034   1_655  S
O461        C470   1.277       .  A
O462       Cu466   1.950       .  S
O462        C469   1.276       .  A
O463       Cu466   1.953       .  S
O463        C468   1.263       .  A
O464       Cu466   1.979   1_655  S
O464        C467   1.274       .  A
Cu465      Cu466   2.324   1_655  S
O471       Cu479   2.000       .  S
O471        C481   1.275       .  A
O472       Cu479   2.023       .  S
O472        C482   1.277       .  A
O473       Cu479   2.039       .  S
O473        C483   1.282       .  A
O474       Cu479   2.052       .  S
O474        C484   1.283       .  A
O475       Cu480   2.038       .  S
O475        C484   1.280       .  A
O476       Cu480   2.051       .  S
O476        C483   1.280       .  A
O477       Cu480   2.057       .  S
O477        C482   1.284       .  A
O478       Cu480   2.066       .  S
O478        C481   1.284       .  A
Cu479      Cu480   2.367       .  S
O485       Cu493   2.071       .  S
O485        C495   1.283       .  A
O486       Cu493   2.066       .  S
O486        C496   1.286       .  A
O487       Cu493   2.052       .  S
O487        C497   1.280       .  A
O488       Cu493   2.040       .  S
O488        C498   1.280       .  A
O489       Cu494   2.080       .  S
O489        C498   1.285       .  A
O490       Cu494   2.057       .  S
O490        C497   1.285       .  A
O491       Cu494   2.056       .  S
O491        C496   1.280       .  A
O492       Cu494   2.031       .  S
O492        C495   1.280       .  A
Cu493      Cu494   2.362       .  S
O499       Cu507   2.099       .  S
O499        C509   1.285       .  A
O500       Cu507   2.080       .  S
O500        C510   1.284       .  A
O501       Cu507   2.114       .  S
O501        C511   1.290       .  A
O502       Cu507   2.082       .  S
O502        C512   1.286       .  A
O503       Cu508   1.987       .  S
O503        C512   1.273       .  A
O504       Cu508   2.012       .  S
O504        C511   1.277       .  A
O505       Cu508   2.026       .  S
O505        C510   1.280       .  A
O506       Cu508   2.039       .  S
O506        C509   1.285       .  A
Cu507      Cu508   2.360       .  S
O513       Cu521   2.050       .  S
O513        C523   1.282       .  A
O514       Cu521   2.056       .  S
O514        C524   1.281       .  A
O515       Cu521   2.081       .  S
O515        C525   1.283       .  A
O516       Cu521   2.083       .  S
O516        C526   1.287       .  A
O517       Cu522   1.958       .  S
O517        C526   1.269       .  A
O518       Cu522   2.020       .  S
O518        C525   1.280       .  A
O519       Cu522   2.017       .  S
O519        C524   1.279       .  A
O520       Cu522   1.967       .  S
O520        C523   1.270       .  A
Cu521      Cu522   2.355       .  S
O527       Cu535   2.066       .  S
O527        C537   1.288       .  A
O528       Cu535   2.069   1_554  S
O528        C538   1.281       .  A
O529       Cu535   2.099   1_554  S
O529        C539   1.289       .  A
O530       Cu535   2.064       .  S
O530        C540   1.279       .  A
O531       Cu536   1.941       .  S
O531        C540   1.275       .  A
O532       Cu536   1.992   1_554  S
O532        C539   1.275       .  A
O533       Cu536   1.946   1_554  S
O533        C538   1.274       .  A
O534       Cu536   1.991       .  S
O534        C537   1.273       .  A
Cu535      Cu536   2.362       .  S
O541       Cu549   2.053       .  S
O541        C551   1.287       .  A
O542       Cu549   2.032       .  S
O542        C552   1.283       .  A
O543       Cu549   1.998       .  S
O543        C553   1.275       .  A
O544       Cu549   1.965       .  S
O544        C554   1.270       .  A
O545       Cu550   2.090       .  S
O545        C554   1.287       .  A
O546       Cu550   2.123       .  S
O546        C553   1.292       .  A
O547       Cu550   2.082       .  S
O547        C552   1.282       .  A
O548       Cu550   2.111       .  S
O548        C551   1.286       .  A
Cu549      Cu550   2.358       .  S
O555       Cu563   1.976       .  S
O555        C565   1.276       .  A
O556       Cu563   1.954   1_455  S
O556        C566   1.264       .  A
O557       Cu563   1.956   1_455  S
O557        C567   1.276       .  A
O558       Cu563   2.033       .  S
O558        C568   1.278       .  A
O559       Cu564   2.103       .  S
O559        C568   1.287       .  A
O560       Cu564   2.118   1_455  S
O560        C567   1.287       .  A
O561       Cu564   2.079   1_455  S
O561        C566   1.287       .  A
O562       Cu564   2.061       .  S
O562        C565   1.282       .  A
Cu563      Cu564   2.331       .  S
O569       Cu577   1.977       .  S
O569        C579   1.270       .  A
O570       Cu577   2.006       .  S
O570        C580   1.277       .  A
O571       Cu577   2.027       .  S
O571        C581   1.284       .  A
O572       Cu577   1.977       .  S
O572        C582   1.272       .  A
O573       Cu578   2.091       .  S
O573        C582   1.287       .  A
O574       Cu578   2.086       .  S
O574        C581   1.282       .  A
O575       Cu578   2.055       .  S
O575        C580   1.282       .  A
O576       Cu578   2.062       .  S
O576        C579   1.284       .  A
Cu577      Cu578   2.356       .  S
O583       Cu591   2.048       .  S
O583        C593   1.282       .  A
O584       Cu591   2.084   1_554  S
O584        C594   1.283       .  A
O585       Cu591   2.073   1_554  S
O585        C595   1.286       .  A
O586       Cu591   2.128       .  S
O586        C596   1.291       .  A
O587       Cu592   2.057       .  S
O587        C596   1.284       .  A
O588       Cu592   2.018   1_554  S
O588        C595   1.276       .  A
O589       Cu592   2.058   1_554  S
O589        C594   1.287       .  A
O590       Cu592   2.063       .  S
O590        C593   1.282       .  A
Cu591      Cu592   2.358       .  S
O597       Cu605   2.089       .  S
O597        C607   1.289       .  A
O598       Cu605   2.086       .  S
O598        C608   1.285       .  A
O599       Cu605   2.032       .  S
O599        C609   1.277       .  A
O600       Cu605   2.056       .  S
O600        C610   1.282       .  A
O601       Cu606   1.994       .  S
O601        C610   1.276       .  A
O602       Cu606   2.013       .  S
O602        C609   1.280       .  A
O603       Cu606   1.990       .  S
O603        C608   1.276       .  A
O604       Cu606   1.934       .  S
O604        C607   1.265       .  A
Cu605      Cu606   2.362       .  S
O611       Cu619   2.028       .  S
O611        C621   1.280       .  A
O612       Cu619   2.036       .  S
O612        C622   1.275       .  A
O613       Cu619   2.102       .  S
O613        C623   1.293       .  A
O614       Cu619   2.102       .  S
O614        C624   1.288       .  A
O615       Cu620   1.984       .  S
O615        C624   1.274       .  A
O616       Cu620   2.015       .  S
O616        C623   1.273       .  A
O617       Cu620   2.026       .  S
O617        C622   1.285       .  A
O618       Cu620   2.063       .  S
O618        C621   1.284       .  A
Cu619      Cu620   2.363       .  S
O625       Cu633   2.069   1_565  S
O625        C635   1.289       .  A
O626       Cu633   1.987       .  S
O626        C636   1.275       .  A
O627       Cu633   1.922       .  S
O627        C637   1.259       .  A
O628       Cu633   1.952   1_565  S
O628        C638   1.273       .  A
O629       Cu634   2.112       .  S
O629        C638   1.287       .  A
O630       Cu634   2.092   1_545  S
O630        C637   1.289       .  A
O631       Cu634   2.095   1_545  S
O631        C636   1.287       .  A
O632       Cu634   2.060       .  S
O632        C635   1.278       .  A
Cu633      Cu634   2.353   1_545  S
O639       Cu647   2.056       .  S
O639        C649   1.285       .  A
O640       Cu647   2.041       .  S
O640        C650   1.277       .  A
O641       Cu647   2.105       .  S
O641        C651   1.292       .  A
O642       Cu647   2.065       .  S
O642        C652   1.283       .  A
O643       Cu648   2.019       .  S
O643        C652   1.278       .  A
O644       Cu648   2.103       .  S
O644        C651   1.287       .  A
O645       Cu648   2.061       .  S
O645        C650   1.286       .  A
O646       Cu648   2.110       .  S
O646        C649   1.289       .  A
Cu647      Cu648   2.357       .  S
O653       Cu661   1.977       .  S
O653        C663   1.271       .  A
O654       Cu661   2.019   1_554  S
O654        C664   1.284       .  A
O655       Cu661   2.014   1_554  S
O655        C665   1.278       .  A
O656       Cu661   1.988       .  S
O656        C666   1.272       .  A
O657       Cu662   2.062   1_556  S
O657        C666   1.285       .  A
O658       Cu662   2.048       .  S
O658        C665   1.280       .  A
O659       Cu662   2.109       .  S
O659        C664   1.284       .  A
O660       Cu662   2.101   1_556  S
O660        C663   1.289       .  A
Cu661      Cu662   2.359   1_556  S
O667       Cu675   2.044       .  S
O667        C677   1.285       .  A
O668       Cu675   2.040       .  S
O668        C678   1.281       .  A
O669       Cu675   2.036       .  S
O669        C679   1.283       .  A
O670       Cu675   1.998       .  S
O670        C680   1.273       .  A
O671       Cu676   2.066       .  S
O671        C680   1.285       .  A
O672       Cu676   2.137       .  S
O672        C679   1.291       .  A
O673       Cu676   2.092       .  S
O673        C678   1.286       .  A
O674       Cu676   2.110       .  S
O674        C677   1.287       .  A
Cu675      Cu676   2.355       .  S
O681       Cu689   2.071   1_565  S
O681        C691   1.279       .  A
O682       Cu689   2.081       .  S
O682        C692   1.288       .  A
O683       Cu689   2.136       .  S
O683        C693   1.291       .  A
O684       Cu689   2.120   1_565  S
O684        C694   1.291       .  A
O685       Cu690   1.995   1_565  S
O685        C694   1.271       .  A
O686       Cu690   1.957       .  S
O686        C693   1.272       .  A
O687       Cu690   1.984       .  S
O687        C692   1.269       .  A
O688       Cu690   1.980   1_565  S
O688        C691   1.280       .  A
Cu689      Cu690   2.306       .  S
O695       Cu703   2.027       .  S
O695        C705   1.279       .  A
O696       Cu703   2.084       .  S
O696        C706   1.285       .  A
O697       Cu703   2.038       .  S
O697        C707   1.282       .  A
O698       Cu703   2.094       .  S
O698        C708   1.288       .  A
O699       Cu704   2.034       .  S
O699        C708   1.281       .  A
O700       Cu704   1.999       .  S
O700        C707   1.273       .  A
O701       Cu704   2.043       .  S
O701        C706   1.286       .  A
O702       Cu704   2.025       .  S
O702        C705   1.279       .  A
Cu703      Cu704   2.366       .  S
O709       Cu717   1.945       .  S
O709        C719   1.263       .  A
O710       Cu717   1.998   1_655  S
O710        C720   1.278       .  A
O711       Cu717   2.014   1_655  S
O711        C721   1.285       .  A
O712       Cu717   1.966       .  S
O712        C722   1.271       .  A
O713       Cu718   2.050       .  S
O713        C722   1.282       .  A
O714       Cu718   2.043   1_655  S
O714        C721   1.275       .  A
O715       Cu718   2.070   1_655  S
O715        C720   1.283       .  A
O716       Cu718   2.084       .  S
O716        C719   1.289       .  A
Cu717      Cu718   2.361       .  S
O723       Cu731   2.031       .  S
O723        C733   1.285       .  A
O724       Cu731   2.040       .  S
O724        C734   1.282       .  A
O725       Cu731   1.991       .  S
O725        C735   1.276       .  A
O726       Cu731   1.985       .  S
O726        C736   1.275       .  A
O727       Cu732   2.115       .  S
O727        C736   1.291       .  A
O728       Cu732   2.121       .  S
O728        C735   1.290       .  A
O729       Cu732   2.109       .  S
O729        C734   1.289       .  A
O730       Cu732   2.093       .  S
O730        C733   1.284       .  A
Cu731      Cu732   2.355       .  S
O737       Cu745   2.120       .  S
O737        C747   1.291       .  A
O738       Cu745   2.122   1_565  S
O738        C748   1.290       .  A
O739       Cu745   2.039   1_565  S
O739        C749   1.277       .  A
O740       Cu745   2.077       .  S
O740        C750   1.287       .  A
O741       Cu746   1.963       .  S
O741        C750   1.266       .  A
O742       Cu746   1.963   1_565  S
O742        C749   1.276       .  A
O743       Cu746   2.027   1_565  S
O743        C748   1.274       .  A
O744       Cu746   1.966       .  S
O744        C747   1.273       .  A
Cu745      Cu746   2.304       .  S
O751       Cu759   2.089       .  S
O751        C761   1.284       .  A
O752       Cu759   2.097   1_455  S
O752        C762   1.291       .  A
O753       Cu759   2.068   1_455  S
O753        C763   1.284       .  A
O754       Cu759   2.045       .  S
O754        C764   1.276       .  A
O755       Cu760   2.011   1_655  S
O755        C764   1.283       .  A
O756       Cu760   1.954       .  S
O756        C763   1.271       .  A
O757       Cu760   1.949       .  S
O757        C762   1.263       .  A
O758       Cu760   1.999   1_655  S
O758        C761   1.279       .  A
Cu759      Cu760   2.357   1_655  S
O765       Cu773   1.959       .  S
O765        C775   1.264       .  A
O766       Cu773   1.960   1_565  S
O766        C776   1.276       .  A
O767       Cu773   2.064   1_565  S
O767        C777   1.288       .  A
O768       Cu773   1.993       .  S
O768        C778   1.274       .  A
O769       Cu774   2.071   1_545  S
O769        C778   1.285       .  A
O770       Cu774   2.049       .  S
O770        C777   1.278       .  A
O771       Cu774   2.117       .  S
O771        C776   1.286       .  A
O772       Cu774   2.083   1_545  S
O772        C775   1.289       .  A
Cu773      Cu774   2.357   1_545  S
O779       Cu787   1.953       .  S
O779        C789   1.263       .  A
O780       Cu787   1.961   1_554  S
O780        C790   1.276       .  A
O781       Cu787   2.018   1_554  S
O781        C791   1.272       .  A
O782       Cu787   1.924       .  S
O782        C792   1.273       .  A
O783       Cu788   2.140   1_556  S
O783        C792   1.289       .  A
O784       Cu788   2.128       .  S
O784        C791   1.292       .  A
O785       Cu788   2.091       .  S
O785        C790   1.283       .  A
O786       Cu788   2.097   1_556  S
O786        C789   1.289       .  A
Cu787      Cu788   2.279   1_556  S
