geometry optimzed in LAMMPS
_audit_creation_date              2020-11-30 
_audit_creation_method            'lammps2cif' 
_symmetry_space_group_name_H-M    'P1' 
_symmetry_Int_Tables_number       1 
_symmetry_cell_setting            triclinic 
loop_ 
_symmetry_equiv_pos_as_xyz 
  x,y,z 
_cell_length_a                    31.9681221931324 
_cell_length_b                    32.03900914000704 
_cell_length_c                    25.877671697301793 
_cell_angle_alpha                 91.03142802439551 
_cell_angle_beta                  90.16963926447278 
_cell_angle_gamma                 119.96196161037561 
loop_ 
_atom_site_label 
_atom_site_type_symbol 
_atom_site_fract_x 
_atom_site_fract_y 
_atom_site_fract_z 
_atom_site_charge 
N1          N  0.83771560  0.76832638  0.78455327    -0.07610
N2          N  0.85436268  0.81516584  0.78819721    -0.59730
N3          N  0.75537338  0.66234149  0.83110330    -0.07290
N4          N  0.71843430  0.65200348  0.86168170    -0.61860
N5          N  0.79585665  0.68284470  0.85817826    -0.06890
N6          N  0.78707903  0.68575060  0.90733221    -0.59710
N7          N  0.79716092  0.74691020  0.75755501    -0.06570
N8          N  0.78499415  0.77867111  0.74261123    -0.62210
C9          C  0.82132245  0.82103970  0.76157506     0.94560
C10         C  0.73865160  0.66597422  0.90954469     0.94340
N11         N  0.74015849  0.56929870  0.70454685    -0.07800
N12         N  0.71079991  0.52217201  0.70144231    -0.60310
N13         N  0.76154708  0.67513641  0.66181011    -0.05920
N14         N  0.74194971  0.69493675  0.63361229    -0.61560
N15         N  0.78100921  0.65578901  0.63207457    -0.07830
N16         N  0.77464834  0.66201647  0.58280415    -0.60580
N17         N  0.72171901  0.58949929  0.73460962    -0.05560
N18         N  0.67974341  0.55661786  0.75280960    -0.61650
Mn19       Mn  0.75772604  0.66811291  0.74625169     1.18440
C20         C  0.67358695  0.51492782  0.73198581     0.96640
C21         C  0.74997751  0.68636273  0.58441008     0.97310
N22         N  0.89405849  0.68432979  0.85892737    -0.07850
N23         N  0.90639421  0.68915467  0.90807739    -0.64160
N24         N  0.95641284  0.74976821  0.75796823    -0.06650
N25         N  0.00003867  0.78228190  0.74312079    -0.64830
N26         N  0.93701205  0.77009748  0.78609920    -0.07360
N27         N  0.96718106  0.81687233  0.79152200    -0.64420
N28         N  0.91655652  0.66620779  0.83245666    -0.06250
N29         N  0.94610418  0.66016220  0.86349554    -0.65110
Mn30       Mn  0.86621994  0.72661747  0.82231012     1.10660
C31         C  0.93914148  0.67449463  0.91078370     0.97870
C32         C  0.00600071  0.82389492  0.76409254     0.97940
N33         N  0.88327977  0.65818240  0.63271982    -0.07360
N34         N  0.89607095  0.66658005  0.58368152    -0.62740
N35         N  0.87841409  0.59219547  0.73548677    -0.06680
N36         N  0.88876940  0.56005545  0.75351889    -0.59470
N37         N  0.83999995  0.57119122  0.70487149    -0.07990
N38         N  0.82368689  0.52434416  0.70125004    -0.62300
N39         N  0.92197290  0.67813855  0.66283727    -0.06980
N40         N  0.96139595  0.70036156  0.63515329    -0.59490
Mn41       Mn  0.81072988  0.61276078  0.66659896     1.20190
Mn42       Mn  0.91912834  0.67109041  0.74716824     1.10090
Cl43       Cl  0.83834174  0.66940667  0.74527141    -0.87460
C44         C  0.94508479  0.69357912  0.58584395     0.94870
C45         C  0.85424795  0.51798668  0.73200247     0.94670
N46         N  0.90549767  0.20983489  0.64682703    -0.07610
N47         N  0.92019246  0.21723640  0.59859210    -0.59730
N48         N  0.95977738  0.21073062  0.75712773    -0.07290
N49         N  0.00239988  0.22243091  0.77717033    -0.61860
N50         N  0.94187135  0.16982395  0.73072819    -0.06890
N51         N  0.97188911  0.15296834  0.73181716    -0.59710
N52         N  0.92373546  0.25101697  0.67292708    -0.06570
N53         N  0.95183785  0.28712891  0.64288773    -0.62210
C54         C  0.94842294  0.26550287  0.59644815     0.94560
C55         C  0.00893192  0.18557454  0.76163308     0.94340
N56         N  0.88110856  0.23361213  0.86921239    -0.07800
N57         N  0.89148583  0.24094679  0.91931771    -0.60310
N58         N  0.88067590  0.29060095  0.76061741    -0.05920
N59         N  0.89175296  0.33287552  0.74156319    -0.61560
N60         N  0.84086402  0.27349024  0.78773466    -0.07830
N61         N  0.82414920  0.30374318  0.78777527    -0.60580
N62         N  0.92115737  0.25203410  0.84248160    -0.05560
N63         N  0.95932029  0.27209011  0.87336399    -0.61650
Mn64       Mn  0.92214304  0.25234561  0.75807106     1.18440
C65         C  0.94052352  0.26473495  0.92107570     0.96640
C66         C  0.85589564  0.34034505  0.75849824     0.97310
N67         N  0.84381894  0.07193836  0.72641261    -0.07850
N68         N  0.85955075  0.04091193  0.72725966    -0.64160
N69         N  0.76470374  0.09325338  0.66625439    -0.06650
N70         N  0.72909460  0.06596724  0.63353235    -0.64830
N71         N  0.80643812  0.11153090  0.64267474    -0.07360
N72         N  0.79996130  0.09775250  0.59363004    -0.64420
N73         N  0.80214624  0.05425354  0.74975386    -0.06250
N74         N  0.78860412  0.01079105  0.76672291    -0.65110
Mn75       Mn  0.87466140  0.14068323  0.68599151     1.10660
C76         C  0.82497056  0.00294328  0.75301071     0.97870
C77         C  0.75162204  0.07000976  0.58809254     0.97940
N78         N  0.74286858  0.17578139  0.78321291    -0.07360
N79         N  0.71235113  0.19210880  0.78429169    -0.62740
N80         N  0.76208148  0.09350564  0.83632555    -0.06680
N81         N  0.74257601  0.05513363  0.86533388    -0.59470
N82         N  0.77972824  0.13306024  0.86515234    -0.07990
N83         N  0.77178991  0.12190822  0.91459026    -0.62300
N84         N  0.72535338  0.13612888  0.75442319    -0.06980
N85         N  0.68235074  0.12464680  0.73555512    -0.59490
Mn86       Mn  0.81069676  0.20429606  0.82798312     1.20190
Mn87       Mn  0.76229459  0.09357902  0.75153234     1.10090
Cl88       Cl  0.84234524  0.17283378  0.75576624    -0.87460
C89         C  0.67510454  0.16028142  0.75403900     0.94870
C90         C  0.74880145  0.07295293  0.91422558     0.94670
N91         N  0.13128018  0.77667701  0.35898532    -0.07610
N92         N  0.11851246  0.77085959  0.40817286    -0.59730
N93         N  0.13959325  0.72099044  0.25040162    -0.07290
N94         N  0.13027290  0.67838131  0.23208066    -0.61860
N95         N  0.17833229  0.73995344  0.28043852    -0.06890
N96         N  0.19615629  0.71084237  0.28309426    -0.59710
N97         N  0.09254057  0.75737084  0.32897905    -0.06570
N98         N  0.05308679  0.73870521  0.35680366    -0.62210
C99         C  0.06939573  0.74675414  0.40614587     0.94560
C100        C  0.16636606  0.67298839  0.25226832     0.94340
N101        N  0.11771745  0.79838281  0.13547672    -0.07800
N102        N  0.10603261  0.79148030  0.08609495    -0.60310
N103        N  0.05492962  0.79424058  0.24015067    -0.05920
N104        N  0.01205517  0.78193606  0.25899093    -0.61560
N105        N  0.07273006  0.83530518  0.21616903    -0.07830
N106        N  0.04240454  0.85189545  0.21811596    -0.60580
N107        N  0.09849749  0.75689246  0.15902188    -0.05560
N108        N  0.07235159  0.72109707  0.12573473    -0.61650
Mn109      Mn  0.09550403  0.75589362  0.24436184     1.18440
C110        C  0.07804087  0.74325117  0.07999660     0.96640
C111        C  0.00496136  0.81858250  0.24546142     0.97310
N112        N  0.27435477  0.83904774  0.28482214    -0.07850
N113        N  0.30569893  0.82371368  0.28655606    -0.64160
N114        N  0.24858714  0.91809101  0.33739023    -0.06650
N115        N  0.26742876  0.95637738  0.36837089    -0.64830
N116        N  0.23089131  0.87847612  0.36417594    -0.07360
N117        N  0.23799995  0.88932006  0.41421041    -0.64420
N118        N  0.29151817  0.87850535  0.25762316    -0.06250
N119        N  0.33494459  0.89075933  0.24029000    -0.65110
Mn120      Mn  0.20400923  0.80810754  0.32380819     1.10660
C121        C  0.34298451  0.85593633  0.25825370     0.97870
C122        C  0.26037906  0.93817976  0.41624846     0.97940
N123        N  0.16836483  0.93456180  0.22159593    -0.07360
N124        N  0.15005049  0.96334222  0.22150794    -0.62740
N125        N  0.25370112  0.91951829  0.16764204    -0.06680
N126        N  0.29016707  0.94967663  0.13894391    -0.59470
N127        N  0.21329421  0.89959303  0.14024713    -0.07990
N128        N  0.22166588  0.91522661  0.09249839    -0.62300
N129        N  0.20851872  0.95380957  0.24919653    -0.06980
N130        N  0.21836047  0.99615862  0.26868830    -0.59490
Mn131      Mn  0.14277699  0.86697108  0.17760516     1.20190
Mn132      Mn  0.25181866  0.91826247  0.25287955     1.10090
Cl133      Cl  0.17368093  0.83723116  0.24952879    -0.87460
C134        C  0.18117030  0.00127224  0.25158635     0.94870
C135        C  0.26974775  0.94577138  0.09192552     0.94670
N136        N  0.44297066  0.27159716  0.79136260    -0.07610
N137        N  0.49001545  0.30155724  0.79107983    -0.59730
N138        N  0.34082045  0.24998308  0.84522476    -0.07290
N139        N  0.32199261  0.26923110  0.87600407    -0.61860
N140        N  0.36301282  0.23227285  0.87229064    -0.06890
N141        N  0.36008716  0.23978178  0.92229341    -0.59710
N142        N  0.42030533  0.28862318  0.76386905    -0.06570
N143        N  0.45156021  0.33056788  0.74434217    -0.62210
C144        C  0.49491417  0.33790852  0.76126269     0.94560
C145        C  0.33387780  0.26252045  0.92402724     0.94340
N146        N  0.23872087  0.16844740  0.73217754    -0.07800
N147        N  0.19191642  0.15244335  0.73194780    -0.60310
N148        N  0.33781272  0.24913010  0.67470577    -0.05920
N149        N  0.34323729  0.28396771  0.64370546    -0.61560
N150        N  0.31606956  0.20746849  0.64944770    -0.07830
N151        N  0.30747489  0.21336365  0.60122265    -0.60580
N152        N  0.26183110  0.20936553  0.75856085    -0.05560
N153        N  0.23125972  0.22197506  0.77719655    -0.61650
Mn154      Mn  0.34071825  0.25062497  0.76044290     1.18440
C155        C  0.18783916  0.18579883  0.76073571     0.96640
C156        C  0.32475355  0.26113676  0.59751425     0.97310
N157        N  0.36359554  0.13201754  0.86988321    -0.07850
N158        N  0.36213425  0.12153077  0.91937250    -0.64160
N159        N  0.42083584  0.13418552  0.75981459    -0.06650
N160        N  0.45260706  0.12396681  0.73933707    -0.64830
N161        N  0.44304273  0.17399391  0.78836285    -0.07360
N162        N  0.49010435  0.19153245  0.78799823    -0.64420
N163        N  0.34159295  0.09211478  0.84151583    -0.06250
N164        N  0.32470152  0.05400779  0.87081636    -0.65110
Mn165      Mn  0.40390457  0.20280521  0.83212566     1.10660
C166        C  0.33791713  0.07261295  0.91918867     0.97870
C167        C  0.49562585  0.16052461  0.75670901     0.97940
N168        N  0.31655029  0.10928251  0.64679674    -0.07360
N169        N  0.30980370  0.09516084  0.59780464    -0.62740
N170        N  0.26133009  0.05238743  0.75407501    -0.06680
N171        N  0.23013377  0.00906216  0.77081038    -0.59470
N172        N  0.23859449  0.07051808  0.72875181    -0.07990
N173        N  0.19174082  0.04009198  0.72734733    -0.62300
N174        N  0.33906278  0.09057814  0.67161548    -0.06980
N175        N  0.34726537  0.06269120  0.63993494    -0.59490
Mn176      Mn  0.27732187  0.13889977  0.68874857     1.20190
Mn177      Mn  0.34110211  0.09144252  0.75679011     1.10090
Cl178      Cl  0.34091927  0.17101158  0.75944889    -0.87460
C179        C  0.32990285  0.06690797  0.59377555     0.94870
C180        C  0.18681384  0.00220153  0.75419336     0.94670
N181        N  0.07391345  0.23729263  0.22490132    -0.07610
N182        N  0.04356245  0.19068404  0.22143744    -0.59730
N183        N  0.09545670  0.33902023  0.17202383    -0.07290
N184        N  0.06796894  0.34798942  0.14125089    -0.61860
N185        N  0.11440380  0.31698680  0.14597649    -0.06890
N186        N  0.10020742  0.31078697  0.09714566    -0.59710
N187        N  0.05490185  0.25915110  0.25096467    -0.06570
N188        N  0.01076043  0.22765256  0.26565860    -0.62210
C189        C  0.00437128  0.18511550  0.24677618     0.94560
C190        C  0.07226237  0.33131466  0.09438648     0.94340
N191        N  0.17517398  0.43890667  0.29172670    -0.07800
N192        N  0.19216051  0.48576586  0.29336505    -0.60310
N193        N  0.09244369  0.33653145  0.34170676    -0.05920
N194        N  0.05373889  0.31929909  0.37062353    -0.61560
N195        N  0.13188321  0.35840584  0.37057436    -0.07830
N196        N  0.12048210  0.35670985  0.41992005    -0.60580
N197        N  0.13562970  0.41714747  0.26302830    -0.05560
N198        N  0.12485610  0.44884165  0.24451127    -0.61650
Mn199      Mn  0.09371758  0.33819266  0.25698502     1.18440
C200        C  0.16060383  0.49142187  0.26368352     0.96640
C201        C  0.07145520  0.33233013  0.41927304     0.97310
N202        N  0.21344803  0.31571343  0.14856656    -0.07850
N203        N  0.22240402  0.30998954  0.10003010    -0.64160
N204        N  0.21047299  0.25715856  0.25528725    -0.06650
N205        N  0.22191585  0.22500522  0.27087854    -0.64830
N206        N  0.17030184  0.23606286  0.22766411    -0.07360
N207        N  0.15333237  0.18933665  0.22411715    -0.64420
N208        N  0.25374610  0.33626656  0.17613097    -0.06250
N209        N  0.29071789  0.34425002  0.14686053    -0.65110
Mn210      Mn  0.14301358  0.27648546  0.18603229     1.10660
C211        C  0.27074354  0.32871365  0.09929431     0.97870
C212        C  0.18577339  0.18287555  0.25099377     0.97940
N213        N  0.23224752  0.35778395  0.37318959    -0.07360
N214        N  0.23881842  0.35451782  0.42320365    -0.62740
N215        N  0.29017650  0.41536248  0.26619819    -0.06680
N216        N  0.33174026  0.44689674  0.24581666    -0.59470
N217        N  0.27198039  0.43767851  0.29300614    -0.07990
N218        N  0.30049110  0.48465428  0.29116449    -0.62300
N219        N  0.24964557  0.33499846  0.34582437    -0.06980
N220        N  0.26776604  0.31535080  0.37632804    -0.59490
Mn221      Mn  0.20329682  0.39899619  0.33382881     1.20190
Mn222      Mn  0.25229132  0.33619707  0.26110119     1.10090
Cl223      Cl  0.17317276  0.33761960  0.25961109    -0.87460
C224        C  0.26086153  0.32774768  0.42429727     0.94870
C225        C  0.33742581  0.49005252  0.26132895     0.94670
N226        N  0.77337343  0.83529657  0.21493113    -0.07610
N227        N  0.82009891  0.85044139  0.21531105    -0.59730
N228        N  0.66979709  0.75669668  0.15634741    -0.07290
N229        N  0.66121460  0.72169521  0.12231546    -0.61860
N230        N  0.69213490  0.79860406  0.13362821    -0.06890
N231        N  0.69771183  0.79272822  0.08438152    -0.59710
N232        N  0.74974689  0.79400258  0.23844139    -0.06570
N233        N  0.77978835  0.78027300  0.25560450    -0.62210
C234        C  0.82356248  0.81570247  0.24073432     0.94560
C235        C  0.67868166  0.74496696  0.07717636     0.94340
N236        N  0.57235291  0.73964615  0.27736230    -0.07800
N237        N  0.52563097  0.71047305  0.28140410    -0.60310
N238        N  0.67560724  0.75780476  0.32690503    -0.05920
N239        N  0.69757585  0.74070370  0.35549788    -0.61560
N240        N  0.65656556  0.77786461  0.35616597    -0.07830
N241        N  0.66496974  0.77421771  0.40557496    -0.60580
N242        N  0.59169950  0.71958261  0.24860937    -0.05560
N243        N  0.55822752  0.67562321  0.23353699    -0.61650
Mn244      Mn  0.67092292  0.75537286  0.24211365     1.18440
C245        C  0.51711047  0.67054826  0.25447939     0.96640
C246        C  0.69121404  0.75144792  0.40445974     0.97310
N247        N  0.69684253  0.89887033  0.13649583    -0.07850
N248        N  0.70331471  0.91312690  0.08821325    -0.64160
N249        N  0.75418704  0.95388112  0.24577191    -0.06650
N250        N  0.78603326  0.99663787  0.26508732    -0.64830
N251        N  0.77594457  0.93476034  0.21975029    -0.07360
N252        N  0.82297859  0.96411132  0.22046197    -0.64420
N253        N  0.67534621  0.91826591  0.16265258    -0.06250
N254        N  0.66776973  0.94694529  0.13264523    -0.65110
Mn255      Mn  0.73496754  0.86701324  0.17571487     1.10660
C256        C  0.68440182  0.94248122  0.08597237     0.97870
C257        C  0.82884538  0.00222508  0.24947466     0.97940
N258        N  0.65732620  0.87899190  0.35983067    -0.07360
N259        N  0.66111591  0.89059678  0.40969606    -0.62740
N260        N  0.59556323  0.87648260  0.25205945    -0.06680
N261        N  0.56356598  0.88764360  0.23446581    -0.59470
N262        N  0.57414086  0.83753661  0.28013290    -0.07990
N263        N  0.52734403  0.82144151  0.28215472    -0.62300
N264        N  0.67798698  0.91819600  0.33235479    -0.06980
N265        N  0.69644031  0.95690008  0.36260776    -0.59490
Mn266      Mn  0.61453941  0.80814890  0.32007489     1.20190
Mn267      Mn  0.67518740  0.91740368  0.24790328     1.10090
Cl268      Cl  0.67342090  0.83669507  0.24622799    -0.87460
C269        C  0.68576618  0.93955463  0.41084519     0.94870
C270        C  0.52112697  0.85247691  0.25295970     0.94670
C271        C  0.95860681  0.13912537  0.24738328    -0.07620
C272        C  0.93114802  0.12536553  0.29256075    -0.18750
C273        C  0.88929778  0.08008865  0.29548860     0.09580
C274        C  0.87452950  0.04826870  0.25210776    -0.07540
C275        C  0.90207588  0.06227323  0.20716974    -0.18780
C276        C  0.94300463  0.10749349  0.20383541     0.09610
S277        S  0.85760674  0.06440418  0.35591142    -0.33750
S278        S  0.97126132  0.12371163  0.14149003    -0.33750
H279        H  0.98031389  0.17144547  0.14434952     0.27620
H280        H  0.84177885  0.01486692  0.35159502     0.27610
H281        H  0.94308015  0.14944731  0.32617227     0.18210
H282        H  0.89022649  0.03869177  0.17314610     0.18210
C283        C  0.47027725  0.62499746  0.25500724    -0.07620
C284        C  0.45796494  0.59122445  0.21411580    -0.18750
C285        C  0.41385727  0.54761844  0.21335947     0.09580
C286        C  0.38171645  0.53705004  0.25492205    -0.07540
C287        C  0.39350878  0.57143554  0.29473314    -0.18780
C288        C  0.43731513  0.61443127  0.29592367     0.09610
S289        S  0.40003176  0.50815272  0.15760842    -0.33750
S290        S  0.44979209  0.65159401  0.35349505    -0.33750
H291        H  0.49547653  0.65625424  0.36195288     0.27620
H292        H  0.35037548  0.49272538  0.15683862     0.27610
H293        H  0.48248531  0.59912022  0.18221048     0.18210
H294        H  0.36950622  0.56371161  0.32711806     0.18210
C295        C  0.27432183  0.31162952  0.47124005    -0.07620
C296        C  0.31009816  0.34555507  0.50506471    -0.18750
C297        C  0.32921627  0.33091371  0.54539502     0.09580
C298        C  0.31108392  0.28113302  0.55312392    -0.07540
C299        C  0.27508934  0.24768330  0.51888665    -0.18780
C300        C  0.25655797  0.26222815  0.47868671     0.09610
S301        S  0.37826959  0.37736667  0.58328433    -0.33750
S302        S  0.20958372  0.21564533  0.43845228    -0.33750
H303        H  0.18534677  0.24114332  0.42807555     0.27620
H304        H  0.40473914  0.35309510  0.58496568     0.27610
H305        H  0.32487584  0.38365500  0.49848389     0.18210
H306        H  0.26009885  0.20935665  0.52381636     0.18210
C307        C  0.32200000  0.28149357  0.97121860    -0.07620
C308        C  0.30939656  0.31745060  0.96485643    -0.18750
C309        C  0.29572943  0.33597748  0.00666489     0.09580
C310        C  0.29475461  0.31871051  0.05643848    -0.07540
C311        C  0.30925547  0.28445130  0.06364332    -0.18780
C312        C  0.32198495  0.26501242  0.02164215     0.09610
S313        S  0.27919394  0.38109262  0.99403209    -0.33750
S314        S  0.33346807  0.21659033  0.03478533    -0.33750
H315        H  0.30274828  0.18637017  0.99479173     0.27620
H316        H  0.29183790  0.40339650  0.04335357     0.27610
H317        H  0.30971277  0.33115846  0.92680723     0.18210
H318        H  0.30732587  0.27019724  0.10180685     0.18210
C319        C  0.29272222  0.98089949  0.05075897    -0.07620
C320        C  0.30633978  0.96640974  0.00564596    -0.18750
C321        C  0.32431790  0.99692480  0.96346990     0.09580
C322        C  0.32723128  0.04257433  0.96553883    -0.07540
C323        C  0.31560591  0.05785501  0.01169545    -0.18780
C324        C  0.29789819  0.02738261  0.05405386     0.09610
S325        S  0.34421109  0.97585714  0.90893775    -0.33750
S326        S  0.28089633  0.04939380  0.11029487    -0.33750
H327        H  0.24127022  0.00507491  0.12407190     0.27620
H328        H  0.38355497  0.02147966  0.89790037     0.27610
H329        H  0.30287634  0.93099238  0.00323121     0.18210
H330        H  0.31787937  0.09274463  0.01390243     0.18210
C331        C  0.31867611  0.03298057  0.54994311    -0.07620
C332        C  0.28238876  0.98493681  0.55628786    -0.18750
C333        C  0.26205119  0.95318440  0.51375025     0.09580
C334        C  0.27964006  0.96917979  0.46360916    -0.07540
C335        C  0.31722738  0.01705998  0.45790293    -0.18780
C336        C  0.33668413  0.04896369  0.50030571     0.09610
S337        S  0.21111344  0.89457851  0.52585951    -0.33750
S338        S  0.38387842  0.10981073  0.48858833    -0.33750
H339        H  0.40546650  0.11876952  0.53800961     0.27620
H340        H  0.18301533  0.89612983  0.48475993     0.27610
H341        H  0.26745011  0.97299545  0.59427692     0.18210
H342        H  0.33159672  0.03005547  0.41997729     0.18210
C343        C  0.18028646  0.04664849  0.25472480    -0.07620
C344        C  0.16722535  0.06112717  0.20967344    -0.18750
C345        C  0.17055548  0.10597569  0.20703435     0.09580
C346        C  0.18525573  0.13673982  0.25131344    -0.07540
C347        C  0.19817405  0.12233562  0.29668777    -0.18780
C348        C  0.19556151  0.07741248  0.29897399     0.09610
S349        S  0.15926174  0.12297719  0.14465162    -0.33750
S350        S  0.21029128  0.06073752  0.35966567    -0.33750
H351        H  0.17712734  0.01115625  0.35373290     0.27620
H352        H  0.19808309  0.17062845  0.14845785     0.27610
H353        H  0.15670897  0.03830215  0.17508074     0.18210
H354        H  0.20922888  0.14568942  0.33087134     0.18210
C355        C  0.16624972  0.62713709  0.25247769    -0.07620
C356        C  0.16918312  0.60969602  0.30078649    -0.18750
C357        C  0.16562473  0.56484755  0.30529397     0.09580
C358        C  0.16083002  0.53719254  0.26031924    -0.07540
C359        C  0.15776467  0.55438728  0.21175803    -0.18780
C360        C  0.16080709  0.59939078  0.20731907     0.09610
S361        S  0.16439509  0.54376410  0.36977878    -0.33750
S362        S  0.15966135  0.62023679  0.14334192    -0.33750
H363        H  0.18858430  0.66964089  0.15548232     0.27620
H364        H  0.12990383  0.49540476  0.35823223     0.27610
H365        H  0.17230123  0.63039058  0.33568934     0.18210
H366        H  0.15431717  0.53326507  0.17710398     0.18210
C367        C  0.47577182  0.85370993  0.25188926    -0.07620
C368        C  0.45937278  0.86193877  0.29899705    -0.18750
C369        C  0.41715468  0.86455792  0.30148672     0.09580
C370        C  0.38982102  0.85773997  0.25601916    -0.07540
C371        C  0.40621859  0.84975811  0.20863071    -0.18780
C372        C  0.44873593  0.84713839  0.20615839     0.09610
S373        S  0.40060873  0.87769989  0.36374567    -0.33750
S374        S  0.46525253  0.83316775  0.14433815    -0.33750
H375        H  0.48971460  0.81037837  0.16367291     0.27620
H376        H  0.38003556  0.90439081  0.34484234     0.27610
H377        H  0.48018607  0.86724982  0.33414967     0.18210
H378        H  0.38495377  0.84393256  0.17370067     0.18210
C379        C  0.95919007  0.81864829  0.25274672    -0.07620
C380        C  0.91598703  0.77428687  0.25068684    -0.18750
C381        C  0.87125989  0.77203313  0.24724347     0.09580
C382        C  0.86924976  0.81518503  0.24744566    -0.07540
C383        C  0.91239751  0.85948448  0.25251240    -0.18780
C384        C  0.95713943  0.86167214  0.25588160     0.09610
S385        S  0.81898204  0.71314108  0.23755721    -0.33750
S386        S  0.00999192  0.92031922  0.26526189    -0.33750
H387        H  0.03518148  0.90408869  0.29599206     0.27620
H388        H  0.80100557  0.72692701  0.19542059     0.27610
H389        H  0.91709736  0.74107799  0.24815515     0.18210
H390        H  0.91128782  0.89272385  0.25397485     0.18210
C391        C  0.97103037  0.28298721  0.96824262    -0.07620
C392        C  0.01224688  0.32921815  0.96743520    -0.18750
C393        C  0.04480836  0.34738879  0.00932256     0.09580
C394        C  0.03638036  0.31851576  0.05271889    -0.07540
C395        C  0.99466945  0.27298524  0.05424997    -0.18780
C396        C  0.96227721  0.25470672  0.01237534     0.09610
S397        S  0.09712591  0.40659256  0.00429363    -0.33750
S398        S  0.91333962  0.19356171  0.01592294    -0.33750
H399        H  0.91661394  0.18095235  0.96435328     0.27620
H400        H  0.10459282  0.41682879  0.05766697     0.27610
H401        H  0.01938491  0.35120874  0.93366721     0.18210
H402        H  0.98861738  0.25045553  0.08732581     0.18210
C403        C  0.98170077  0.28856940  0.55364176    -0.07620
C404        C  0.96270203  0.29241310  0.50644983    -0.18750
C405        C  0.99176988  0.30962058  0.46288408     0.09580
C406        C  0.04081489  0.32126586  0.46572349    -0.07540
C407        C  0.06015977  0.31921735  0.51378351    -0.18780
C408        C  0.03113295  0.30265508  0.55754815     0.09610
S409        S  0.96403570  0.31713619  0.40574784    -0.33750
S410        S  0.05877468  0.29789102  0.61639681    -0.33750
H411        H  0.01899437  0.25456094  0.63238907     0.27620
H412        H  0.00434277  0.36175095  0.39357667     0.27610
H413        H  0.92485586  0.28200435  0.50355960     0.18210
H414        H  0.09760924  0.32831776  0.51684296     0.18210
C415        C  0.69362835  0.97504850  0.04230675    -0.07620
C416        C  0.71697726  0.02495097  0.05224051    -0.18750
C417        C  0.73597931  0.05803174  0.01204619     0.09580
C418        C  0.73025507  0.04109560  0.96002198    -0.07540
C419        C  0.70495842  0.99086701  0.95051759    -0.18780
C420        C  0.68679987  0.95803079  0.99066091     0.09610
S421        S  0.76928003  0.12083746  0.03045045    -0.33750
S422        S  0.65515393  0.89469101  0.97337470    -0.33750
H423        H  0.62466511  0.87995122  0.01640896     0.27620
H424        H  0.81036139  0.12844506  0.00320795     0.27610
H425        H  0.72324676  0.03839985  0.09192496     0.18210
H426        H  0.69933673  0.97657177  0.91123449     0.18210
C427        C  0.72901976  0.03831187  0.54221989    -0.07620
C428        C  0.69621247  0.98919327  0.54927072    -0.18750
C429        C  0.68045815  0.95592685  0.50761342     0.09580
C430        C  0.69844279  0.97182408  0.45746895    -0.07540
C431        C  0.73006431  0.02142259  0.45065804    -0.18780
C432        C  0.74496815  0.05457154  0.49196986     0.09610
S433        S  0.63789873  0.89415159  0.52155702    -0.33750
S434        S  0.78440140  0.11726694  0.47785973    -0.33750
H435        H  0.76752360  0.13536550  0.51760279     0.27620
H436        H  0.60530302  0.88987962  0.48234160     0.27610
H437        H  0.68392558  0.97629678  0.58780342     0.18210
H438        H  0.74382120  0.03488713  0.41268065     0.18210
C439        C  0.14369688  0.18872378  0.76203888    -0.07620
C440        C  0.12060974  0.18459711  0.80922602    -0.18750
C441        C  0.07618618  0.18336575  0.81079362     0.09580
C442        C  0.05525417  0.18699248  0.76422439    -0.07540
C443        C  0.07899451  0.19211983  0.71743334    -0.18780
C444        C  0.12325748  0.19376146  0.71590947     0.09610
S445        S  0.04748312  0.17539299  0.87262859    -0.33750
S446        S  0.15232476  0.20342151  0.65405544    -0.33750
H447        H  0.19984430  0.23089356  0.67345466     0.27620
H448        H  0.99971356  0.15348865  0.85380079     0.27610
H449        H  0.13651408  0.18083799  0.84468219     0.18210
H450        H  0.06321735  0.19568019  0.68177995     0.18210
C451        C  0.62802034  0.15786240  0.75350841    -0.07620
C452        C  0.60846414  0.16276244  0.70690124    -0.18750
C453        C  0.56542380  0.16450281  0.70638488     0.09580
C454        C  0.54135414  0.16038253  0.75332122    -0.07540
C455        C  0.56093133  0.15524431  0.79958050    -0.18780
C456        C  0.60343882  0.15323557  0.80011186     0.09610
S457        S  0.54435243  0.17410676  0.64543680    -0.33750
S458        S  0.62368706  0.14328849  0.86144311    -0.33750
H459        H  0.64195870  0.11460052  0.84128339     0.27620
H460        H  0.52014060  0.19703957  0.66591676     0.27610
H461        H  0.62754386  0.16675419  0.67112147     0.18210
H462        H  0.54227264  0.15161328  0.83556932     0.18210
C463        C  0.97499751  0.69089627  0.95374855    -0.07620
C464        C  0.99350540  0.66178527  0.97094170    -0.18750
C465        C  0.02764953  0.67731871  0.01187597     0.09580
C466        C  0.04318016  0.72269524  0.03622195    -0.07540
C467        C  0.02433608  0.75118421  0.01885785    -0.18780
C468        C  0.99178753  0.73669957  0.97781292     0.09610
S469        S  0.05067791  0.63848423  0.03012387    -0.33750
S470        S  0.97616032  0.78067275  0.95663712    -0.33750
H471        H  0.98365654  0.77500069  0.90400212     0.27620
H472        H  0.09584252  0.67534662  0.04839694     0.27610
H473        H  0.98144751  0.62694683  0.95234924     0.18210
H474        H  0.03560278  0.78601112  0.03712256     0.18210
C475        C  0.97720607  0.70951247  0.54002154    -0.07620
C476        C  0.95848775  0.68557747  0.49241825    -0.18750
C477        C  0.98771605  0.69551933  0.44892702     0.09580
C478        C  0.03723735  0.73167572  0.45190021    -0.07540
C479        C  0.05597882  0.75570144  0.49945433    -0.18780
C480        C  0.02677462  0.74557077  0.54304741     0.09610
S481        S  0.95960862  0.65843023  0.39204903    -0.33750
S482        S  0.05509032  0.78180904  0.60033831    -0.33750
H483        H  0.01604504  0.78892549  0.61139796     0.27620
H484        H  0.99785518  0.64951768  0.38282978     0.27610
H485        H  0.92096752  0.65737797  0.48937901     0.18210
H486        H  0.09353885  0.78379523  0.50244752     0.18210
C487        C  0.82248198  0.86731600  0.75824296    -0.07620
C488        C  0.78679065  0.87257862  0.78376576    -0.18750
C489        C  0.78810821  0.91691064  0.78572974     0.09580
C490        C  0.82463004  0.95664722  0.75898406    -0.07540
C491        C  0.86073769  0.95110205  0.73407301    -0.18780
C492        C  0.86016856  0.90714707  0.73364009     0.09610
S493        S  0.74341721  0.92026212  0.82509353    -0.33750
S494        S  0.90797401  0.90397774  0.70009030    -0.33750
H495        H  0.88068139  0.85505974  0.68519380     0.27620
H496        H  0.77717533  0.96347391  0.85044171     0.27610
H497        H  0.75871399  0.84235367  0.80412412     0.18210
H498        H  0.88930922  0.98093291  0.71378322     0.18210
C499        C  0.85185729  0.47132567  0.73906063    -0.07620
C500        C  0.85851528  0.44821151  0.69595746    -0.18750
C501        C  0.85948365  0.40520754  0.70092192     0.09580
C502        C  0.85358812  0.38466503  0.75010744    -0.07540
C503        C  0.84581604  0.40731427  0.79299159    -0.18780
C504        C  0.84501326  0.45037096  0.78803966     0.09610
S505        S  0.86727350  0.37787079  0.64298113    -0.33750
S506        S  0.83478613  0.47659253  0.84549445    -0.33750
H507        H  0.81051972  0.49717002  0.82051031     0.27620
H508        H  0.83705212  0.33001643  0.65794987     0.27610
H509        H  0.86356688  0.46409338  0.65822966     0.18210
H510        H  0.84098395  0.39168068  0.83084071     0.18210
C511        C  0.14026804  0.95701508  0.75863436    -0.07620
C512        C  0.10959424  0.93999796  0.71494049    -0.18750
C513        C  0.06515492  0.89719992  0.71594426     0.09580
C514        C  0.05103379  0.87036069  0.76150830    -0.07540
C515        C  0.08118250  0.88753278  0.80548378    -0.18780
C516        C  0.12547792  0.93070891  0.80466418     0.09610
S517        S  0.02811966  0.87918487  0.65804920    -0.33750
S518        S  0.16046841  0.95103776  0.86388465    -0.33750
H519        H  0.17763205  0.00033878  0.85646019     0.27620
H520        H  0.98333889  0.85398338  0.68262881     0.27610
H521        H  0.12044980  0.96010646  0.67952066     0.18210
H522        H  0.07010403  0.86715454  0.84069216     0.18210
C523        C  0.54169531  0.38168643  0.75179758    -0.07620
C524        C  0.57484865  0.40237241  0.79315670    -0.18750
C525        C  0.61874167  0.44522946  0.78743099     0.09580
C526        C  0.63005753  0.46788262  0.73919329    -0.07540
C527        C  0.59762352  0.44674131  0.69750094    -0.18780
C528        C  0.55367120  0.40392989  0.70321170     0.09610
S529        S  0.65849162  0.46941801  0.84312094    -0.33750
S530        S  0.51504894  0.37914262  0.64685845    -0.33750
H531        H  0.49905941  0.33074471  0.65830458     0.27620
H532        H  0.70182772  0.49193606  0.81549199     0.27610
H533        H  0.56609279  0.38553820  0.83055331     0.18210
H534        H  0.60631646  0.46407930  0.66040422     0.18210
C535        C  0.68951719  0.72409831  0.03062144    -0.07620
C536        C  0.66523187  0.67371255  0.02205623    -0.18750
C537        C  0.67879386  0.65263974  0.98192272     0.09580
C538        C  0.71790062  0.68263724  0.95023069    -0.07540
C539        C  0.74077459  0.73254407  0.95771917    -0.18780
C540        C  0.72725400  0.75362262  0.99653233     0.09610
S541        S  0.64571199  0.58786546  0.97437231    -0.33750
S542        S  0.76271437  0.81852359  0.00080773    -0.33750
H543        H  0.72245072  0.82424287  0.99162598     0.27620
H544        H  0.67930463  0.58290536  0.94391575     0.27610
H545        H  0.63622503  0.65057189  0.04735418     0.18210
H546        H  0.77025294  0.75582045  0.93286479     0.18210
C547        C  0.73336507  0.70148860  0.53832135    -0.07620
C548        C  0.76100113  0.71305433  0.49335189    -0.18750
C549        C  0.74934386  0.73112843  0.45005492     0.09580
C550        C  0.70817889  0.73696272  0.45074051    -0.07540
C551        C  0.68047289  0.72528340  0.49566497    -0.18780
C552        C  0.69196197  0.70692875  0.53882585     0.09610
S553        S  0.79012673  0.74825898  0.39638694    -0.33750
S554        S  0.65023156  0.68816305  0.59166117    -0.33750
H555        H  0.65171378  0.64566123  0.60024225     0.27620
H556        H  0.78849915  0.79042211  0.38616428     0.27610
H557        H  0.79299139  0.70955083  0.49246915     0.18210
H558        H  0.64831537  0.72852755  0.49645434     0.18210
loop_ 
_geom_bond_atom_site_label_1 
_geom_bond_atom_site_label_2 
_geom_bond_distance 
_geom_bond_site_symmetry_2 
_ccdc_geom_bond_type 
N1            N2   1.319       .  A
N1            N7   1.315       .  A
N1          Mn30   2.197       .  S
N2            C9   1.351       .  A
N3            N5   1.314       .  A
N3            N4   1.325       .  A
N3          Mn19   2.205       .  S
N4           C10   1.356       .  A
N5            N6   1.315       .  A
N5          Mn30   2.190       .  S
N6           C10   1.350       .  A
N7            N8   1.321       .  A
N7          Mn19   2.200       .  S
N8            C9   1.353       .  A
C9          C487   1.469       .  S
C10         C538   1.474       .  S
N11          N17   1.318       .  A
N11          N12   1.322       .  A
N11         Mn41   2.218       .  S
N12          C20   1.353       .  A
N13          N14   1.318       .  A
N13          N15   1.317       .  A
N13         Mn19   2.198       .  S
N14          C21   1.350       .  A
N15          N16   1.325       .  A
N15         Mn41   2.225       .  S
N16          C21   1.359       .  A
N17          N18   1.320       .  A
N17         Mn19   2.199       .  S
N18          C20   1.351       .  A
Mn19        Cl43   2.557       .  S
C20         C526   1.470       .  S
C21         C547   1.488       .  S
N22          N23   1.314       .  A
N22          N28   1.315       .  A
N22         Mn30   2.184       .  S
N23          C31   1.347       .  A
N24          N26   1.315       .  A
N24          N25   1.321   1_655  A
N24         Mn42   2.196       .  S
N25          C32   1.352       .  A
N26          N27   1.320       .  A
N26         Mn30   2.202       .  S
N27          C32   1.352   1_655  A
N28          N29   1.326       .  A
N28         Mn42   2.214       .  S
N29          C31   1.357       .  A
Mn30        Cl43   2.521       .  S
C31         C463   1.482       .  S
C32         C514   1.469       .  S
N33          N34   1.325       .  A
N33          N39   1.316       .  A
N33         Mn41   2.225       .  S
N34          C44   1.360       .  A
N35          N36   1.321       .  A
N35          N37   1.318       .  A
N35         Mn42   2.204       .  S
N36          C45   1.352       .  A
N37          N38   1.321       .  A
N37         Mn41   2.217       .  S
N38          C45   1.353       .  A
N39          N40   1.318       .  A
N39         Mn42   2.195       .  S
N40          C44   1.349       .  A
Mn41        Cl43   2.544       .  S
Mn42        Cl43   2.556       .  S
C44         C475   1.492       .  S
C45         C499   1.473       .  S
N46          N47   1.318       .  A
N46          N52   1.317       .  A
N46         Mn75   2.194       .  S
N47          C54   1.348       .  A
N48          N50   1.315       .  A
N48          N49   1.321   1_655  A
N48         Mn64   2.197       .  S
N49          C55   1.353       .  A
N50          N51   1.316       .  A
N50         Mn75   2.184       .  S
N51          C55   1.349   1_655  A
N52          N53   1.322       .  A
N52         Mn64   2.204       .  S
N53          C54   1.353       .  A
C54         C403   1.468       .  S
C55         C442   1.460       .  S
N56          N62   1.316       .  A
N56          N57   1.325       .  A
N56         Mn86   2.219       .  S
N57          C65   1.358       .  A
N58          N59   1.323       .  A
N58          N60   1.317       .  A
N58         Mn64   2.210       .  S
N59          C66   1.355       .  A
N60          N61   1.320       .  A
N60         Mn86   2.210       .  S
N61          C66   1.352       .  A
N62          N63   1.316       .  A
N62         Mn64   2.185       .  S
N63          C65   1.347       .  A
Mn64        Cl88   2.550       .  S
C65         C391   1.477       .  S
C66         C502   1.478       .  S
N67          N68   1.320       .  A
N67          N73   1.313       .  A
N67         Mn75   2.199       .  S
N68          C76   1.355       .  A
N69          N71   1.316       .  A
N69          N70   1.323       .  A
N69         Mn87   2.208       .  S
N70          C77   1.355       .  A
N71          N72   1.317       .  A
N71         Mn75   2.191       .  S
N72          C77   1.349       .  A
N73          N74   1.319       .  A
N73         Mn87   2.194       .  S
N74          C76   1.353       .  A
Mn75        Cl88   2.529       .  S
C76         C490   1.489   1_545  S
C77         C427   1.477       .  S
N78          N79   1.317       .  A
N78          N84   1.317       .  A
N78         Mn86   2.202       .  S
N79          C89   1.350       .  A
N80          N81   1.317       .  A
N80          N82   1.315       .  A
N80         Mn87   2.194       .  S
N81          C90   1.351       .  A
N82          N83   1.325       .  A
N82         Mn86   2.223       .  S
N83          C90   1.360       .  A
N84          N85   1.322       .  A
N84         Mn87   2.205       .  S
N85          C89   1.353       .  A
Mn86        Cl88   2.548       .  S
Mn87        Cl88   2.551       .  S
C89         C451   1.468       .  S
C90         C418   1.497       .  S
N91          N92   1.326       .  A
N91          N97   1.316       .  A
N91        Mn120   2.226       .  S
N92          C99   1.361       .  A
N93          N95   1.316       .  A
N93          N94   1.322       .  A
N93        Mn109   2.200       .  S
N94         C100   1.354       .  A
N95          N96   1.316       .  A
N95        Mn120   2.195       .  S
N96         C100   1.350       .  A
N97          N98   1.317       .  A
N97        Mn109   2.193       .  S
N98          C99   1.349       .  A
C99         C478   1.491       .  S
C100        C355   1.467       .  S
N101        N107   1.316       .  A
N101        N102   1.314       .  A
N101       Mn131   2.193       .  S
N102        C110   1.350       .  A
N103        N104   1.320       .  A
N103        N105   1.313       .  A
N103       Mn109   2.191       .  S
N104        C111   1.354       .  A
N105        N106   1.319       .  A
N105       Mn131   2.195       .  S
N106        C111   1.352       .  A
N107        N108   1.326       .  A
N107       Mn109   2.211       .  S
N108        C110   1.357       .  A
Mn109      Cl133   2.556       .  S
C110        C466   1.480       .  S
C111        C379   1.477   1_455  S
N112        N113   1.319       .  A
N112        N118   1.318       .  A
N112       Mn120   2.209       .  S
N113        C121   1.351       .  A
N114        N116   1.315       .  A
N114        N115   1.317       .  A
N114       Mn132   2.190       .  S
N115        C122   1.350       .  A
N116        N117   1.324       .  A
N116       Mn120   2.211       .  S
N117        C122   1.358       .  A
N118        N119   1.322       .  A
N118       Mn132   2.206       .  S
N119        C121   1.353       .  A
Mn120      Cl133   2.542       .  S
C121        C370   1.471       .  S
C122        C334   1.486       .  S
N123        N124   1.316       .  A
N123        N129   1.314       .  A
N123       Mn131   2.189       .  S
N124        C134   1.351   1_565  A
N125        N126   1.323       .  A
N125        N127   1.317       .  A
N125       Mn132   2.207       .  S
N126        C135   1.353       .  A
N127        N128   1.319       .  A
N127       Mn131   2.192       .  S
N128        C135   1.349       .  A
N129        N130   1.320       .  A
N129       Mn132   2.191       .  S
N130        C134   1.353   1_565  A
Mn131      Cl133   2.518       .  S
Mn132      Cl133   2.550       .  S
C134        C343   1.469       .  S
C135        C319   1.471       .  S
N136        N137   1.320       .  A
N136        N142   1.317       .  A
N136       Mn165   2.207       .  S
N137        C144   1.352       .  A
N138        N140   1.315       .  A
N138        N139   1.316       .  A
N138       Mn154   2.194       .  S
N139        C145   1.350       .  A
N140        N141   1.324       .  A
N140       Mn165   2.210       .  S
N141        C145   1.358       .  A
N142        N143   1.321       .  A
N142       Mn154   2.205       .  S
N143        C144   1.355       .  A
C144        C523   1.478       .  S
C145        C307   1.487       .  S
N146        N152   1.315       .  A
N146        N147   1.317       .  A
N146       Mn176   2.195       .  S
N147        C155   1.351       .  A
N148        N149   1.326       .  A
N148        N150   1.316       .  A
N148       Mn154   2.219       .  S
N149        C156   1.359       .  A
N150        N151   1.314       .  A
N150       Mn176   2.183       .  S
N151        C156   1.348       .  A
N152        N153   1.319       .  A
N152       Mn154   2.186       .  S
N153        C155   1.350       .  A
Mn154      Cl178   2.554       .  S
C155        C439   1.461       .  S
C156        C298   1.491       .  S
N157        N158   1.325       .  A
N157        N163   1.316       .  A
N157       Mn165   2.220       .  S
N158        C166   1.358       .  A
N159        N161   1.317       .  A
N159        N160   1.322       .  A
N159       Mn177   2.211       .  S
N160        C167   1.354       .  A
N161        N162   1.317       .  A
N161       Mn165   2.196       .  S
N162        C167   1.349       .  A
N163        N164   1.317       .  A
N163       Mn177   2.192       .  S
N164        C166   1.349       .  A
Mn165      Cl178   2.547       .  S
C166        C322   1.482       .  S
C167        C454   1.467       .  S
N168        N169   1.319       .  A
N168        N174   1.316       .  A
N168       Mn176   2.193       .  S
N169        C179   1.349       .  A
N170        N171   1.323       .  A
N170        N172   1.314       .  A
N170       Mn177   2.210       .  S
N171        C180   1.356       .  A
N172        N173   1.317       .  A
N172       Mn176   2.187       .  S
N173        C180   1.350       .  A
N174        N175   1.322       .  A
N174       Mn177   2.204       .  S
N175        C179   1.353       .  A
Mn176      Cl178   2.522       .  S
Mn177      Cl178   2.552       .  S
C179        C331   1.470       .  S
C180        C511   1.476   1_545  S
N181        N182   1.314       .  A
N181        N187   1.314       .  A
N181       Mn210   2.181       .  S
N182        C189   1.348       .  A
N183        N185   1.316       .  A
N183        N184   1.321       .  A
N183       Mn199   2.200       .  S
N184        C190   1.351       .  A
N185        N186   1.319       .  A
N185       Mn210   2.196       .  S
N186        C190   1.351       .  A
N187        N188   1.322       .  A
N187       Mn199   2.196       .  S
N188        C189   1.355       .  A
C189        C271   1.470   1_455  S
C190        C394   1.467       .  S
N191        N197   1.316       .  A
N191        N192   1.317       .  A
N191       Mn221   2.196       .  S
N192        C200   1.350       .  A
N193        N194   1.317       .  A
N193        N195   1.316       .  A
N193       Mn199   2.194       .  S
N194        C201   1.349       .  A
N195        N196   1.324       .  A
N195       Mn221   2.213       .  S
N196        C201   1.358       .  A
N197        N198   1.321       .  A
N197       Mn199   2.195       .  S
N198        C200   1.352       .  A
Mn199      Cl223   2.550       .  S
C200        C358   1.467       .  S
C201        C406   1.485       .  S
N202        N203   1.319       .  A
N202        N208   1.316       .  A
N202       Mn210   2.195       .  S
N203        C211   1.350       .  A
N204        N206   1.314       .  A
N204        N205   1.322       .  A
N204       Mn222   2.197       .  S
N205        C212   1.355       .  A
N206        N207   1.314       .  A
N206       Mn210   2.185       .  S
N207        C212   1.348       .  A
N208        N209   1.322       .  A
N208       Mn222   2.199       .  S
N209        C211   1.351       .  A
Mn210      Cl223   2.522       .  S
C211        C310   1.470       .  S
C212        C346   1.470       .  S
N213        N214   1.325       .  A
N213        N219   1.316       .  A
N213       Mn221   2.214       .  S
N214        C224   1.356       .  A
N215        N216   1.322       .  A
N215        N217   1.316       .  A
N215       Mn222   2.199       .  S
N216        C225   1.354       .  A
N217        N218   1.316       .  A
N217       Mn221   2.194       .  S
N218        C225   1.351       .  A
N219        N220   1.317       .  A
N219       Mn222   2.195       .  S
N220        C224   1.349       .  A
Mn221      Cl223   2.539       .  S
Mn222      Cl223   2.553       .  S
C224        C295   1.473       .  S
C225        C286   1.477       .  S
N226        N227   1.320       .  A
N226        N232   1.313       .  A
N226       Mn255   2.201       .  S
N227        C234   1.354       .  A
N228        N230   1.316       .  A
N228        N229   1.328       .  A
N228       Mn244   2.221       .  S
N229        C235   1.361       .  A
N230        N231   1.311       .  A
N230       Mn255   2.185       .  S
N231        C235   1.344       .  A
N232        N233   1.319       .  A
N232       Mn244   2.187       .  S
N233        C234   1.352       .  A
C234        C382   1.479       .  S
C235        C535   1.491       .  S
N236        N242   1.316       .  A
N236        N237   1.314       .  A
N236       Mn266   2.192       .  S
N237        C245   1.347       .  A
N238        N239   1.318       .  A
N238        N240   1.316       .  A
N238       Mn244   2.196       .  S
N239        C246   1.349       .  A
N240        N241   1.325       .  A
N240       Mn266   2.224       .  S
N241        C246   1.359       .  A
N242        N243   1.324       .  A
N242       Mn244   2.206       .  S
N243        C245   1.357       .  A
Mn244      Cl268   2.567       .  S
C245        C283   1.480       .  S
C246        C550   1.487       .  S
N247        N248   1.319       .  A
N247        N253   1.316       .  A
N247       Mn255   2.198       .  S
N248        C256   1.350       .  A
N249        N251   1.314       .  A
N249        N250   1.320       .  A
N249       Mn267   2.191       .  S
N250        C257   1.353   1_565  A
N251        N252   1.316       .  A
N251       Mn255   2.188       .  S
N252        C257   1.352   1_565  A
N253        N254   1.324       .  A
N253       Mn267   2.207       .  S
N254        C256   1.355       .  A
Mn255      Cl268   2.514       .  S
C256        C415   1.480       .  S
C257        C274   1.469       .  S
N258        N259   1.325       .  A
N258        N264   1.314       .  A
N258       Mn266   2.211       .  S
N259        C269   1.359       .  A
N260        N261   1.323       .  A
N260        N262   1.317       .  A
N260       Mn267   2.210       .  S
N261        C270   1.355       .  A
N262        N263   1.318       .  A
N262       Mn266   2.206       .  S
N263        C270   1.350       .  A
N264        N265   1.315       .  A
N264       Mn267   2.186       .  S
N265        C269   1.350       .  A
Mn266      Cl268   2.529       .  S
Mn267      Cl268   2.558       .  S
C269        C430   1.491       .  S
C270        C367   1.470       .  S
C271        C272   1.403       .  A
C271        C276   1.413       .  A
C272        C273   1.402       .  A
C272        H281   1.085       .  S
C273        C274   1.413       .  A
C273        S277   1.804       .  S
C274        C275   1.400       .  A
C275        C276   1.389       .  A
C275        H282   1.085       .  S
C276        S278   1.805       .  S
S277        H280   1.407       .  S
S278        H279   1.408       .  S
C283        C284   1.406       .  A
C283        C288   1.417       .  A
C284        C285   1.404       .  A
C284        H293   1.083       .  S
C285        C286   1.414       .  A
C285        S289   1.802       .  S
C286        C287   1.400       .  A
C287        C288   1.390       .  A
C287        H294   1.083       .  S
C288        S290   1.804       .  S
S289        H292   1.407       .  S
S290        H291   1.408       .  S
C295        C296   1.405       .  A
C295        C300   1.407       .  A
C296        C297   1.408       .  A
C296        H305   1.084       .  S
C297        C298   1.417       .  A
C297        S301   1.801       .  S
C298        C299   1.409       .  A
C299        C300   1.393       .  A
C299        H306   1.083       .  S
C300        S302   1.806       .  S
S301        H304   1.407       .  S
S302        H303   1.407       .  S
C307        C308   1.409       .  A
C307        C312   1.416   1_556  A
C308        C309   1.397   1_556  A
C308        H317   1.083       .  S
C309        C310   1.405       .  A
C309        S313   1.804   1_554  S
C310        C311   1.403       .  A
C311        C312   1.402       .  A
C311        H318   1.085       .  S
C312        S314   1.801       .  S
S313        H316   1.407   1_556  S
S314        H315   1.408   1_554  S
C319        C320   1.398       .  A
C319        C324   1.415   1_565  A
C320        C321   1.399   1_554  A
C320        H329   1.084       .  S
C321        C322   1.418   1_565  A
C321        S325   1.803       .  S
C322        C323   1.403   1_556  A
C323        C324   1.402       .  A
C323        H330   1.084       .  S
C324        S326   1.806       .  S
S325        H328   1.407   1_565  S
S326        H327   1.404       .  S
C331        C332   1.403   1_545  A
C331        C336   1.406       .  A
C332        C333   1.401       .  A
C332        H341   1.084       .  S
C333        C334   1.415       .  A
C333        S337   1.802       .  S
C334        C335   1.410   1_565  A
C335        C336   1.399       .  A
C335        H342   1.083       .  S
C336        S338   1.804       .  S
S337        H340   1.408       .  S
S338        H339   1.406       .  S
C343        C344   1.400       .  A
C343        C348   1.413       .  A
C344        C345   1.390       .  A
C344        H353   1.085       .  S
C345        C346   1.414       .  A
C345        S349   1.805       .  S
C346        C347   1.403       .  A
C347        C348   1.402       .  A
C347        H354   1.085       .  S
C348        S350   1.803       .  S
S349        H352   1.408       .  S
S350        H351   1.407       .  S
C355        C356   1.400       .  A
C355        C360   1.412       .  A
C356        C357   1.391       .  A
C356        H365   1.085       .  S
C357        C358   1.410       .  A
C357        S361   1.805       .  S
C358        C359   1.404       .  A
C359        C360   1.403       .  A
C359        H366   1.085       .  S
C360        S362   1.803       .  S
S361        H364   1.407       .  S
S362        H363   1.406       .  S
C367        C368   1.400       .  A
C367        C372   1.412       .  A
C368        C369   1.395       .  A
C368        H377   1.085       .  S
C369        C370   1.411       .  A
C369        S373   1.804       .  S
C370        C371   1.404       .  A
C371        C372   1.405       .  A
C371        H378   1.085       .  S
C372        S374   1.804       .  S
S373        H376   1.406       .  S
S374        H375   1.406       .  S
C379        C380   1.402       .  A
C379        C384   1.413       .  A
C380        C381   1.398       .  A
C380        H389   1.083       .  S
C381        C382   1.416       .  A
C381        S385   1.802       .  S
C382        C383   1.404       .  A
C383        C384   1.399       .  A
C383        H390   1.083       .  S
C384        S386   1.804   1_655  S
S385        H388   1.408       .  S
S386        H387   1.407       .  S
C391        C392   1.408   1_655  A
C391        C396   1.410   1_556  A
C392        C393   1.401   1_556  A
C392        H401   1.084       .  S
C393        C394   1.407       .  A
C393        S397   1.804       .  S
C394        C395   1.403   1_455  A
C395        C396   1.398       .  A
C395        H402   1.084       .  S
C396        S398   1.800       .  S
S397        H400   1.406       .  S
S398        H399   1.407   1_554  S
C403        C404   1.397       .  A
C403        C408   1.413   1_655  A
C404        C405   1.398       .  A
C404        H413   1.085       .  S
C405        C406   1.420   1_655  A
C405        S409   1.802       .  S
C406        C407   1.404       .  A
C407        C408   1.400       .  A
C407        H414   1.084       .  S
C408        S410   1.805       .  S
S409        H412   1.408   1_655  S
S410        H411   1.406       .  S
C415        C416   1.404   1_565  A
C415        C420   1.409   1_554  A
C416        C417   1.405       .  A
C416        H425   1.085       .  S
C417        C418   1.419   1_554  A
C417        S421   1.798       .  S
C418        C419   1.410   1_545  A
C419        C420   1.399       .  A
C419        H426   1.084       .  S
C420        S422   1.804       .  S
S421        H424   1.405       .  S
S422        H423   1.407   1_556  S
C427        C428   1.405   1_545  A
C427        C432   1.409       .  A
C428        C429   1.404       .  A
C428        H437   1.084       .  S
C429        C430   1.418       .  A
C429        S433   1.799       .  S
C430        C431   1.409   1_565  A
C431        C432   1.396       .  A
C431        H438   1.083       .  S
C432        S434   1.805       .  S
S433        H436   1.407       .  S
S434        H435   1.407       .  S
C439        C440   1.402       .  A
C439        C444   1.409       .  A
C440        C441   1.402       .  A
C440        H449   1.085       .  S
C441        C442   1.411       .  A
C441        S445   1.805       .  S
C442        C443   1.399       .  A
C443        C444   1.390       .  A
C443        H450   1.085       .  S
C444        S446   1.806       .  S
S445        H448   1.405   1_455  S
S446        H447   1.407       .  S
C451        C452   1.404       .  A
C451        C456   1.411       .  A
C452        C453   1.405       .  A
C452        H461   1.084       .  S
C453        C454   1.412       .  A
C453        S457   1.804       .  S
C454        C455   1.399       .  A
C455        C456   1.392       .  A
C455        H462   1.084       .  S
C456        S458   1.805       .  S
S457        H460   1.406       .  S
S458        H459   1.407       .  S
C463        C464   1.408       .  A
C463        C468   1.417       .  A
C464        C465   1.412   1_656  A
C464        H473   1.084       .  S
C465        C466   1.415       .  A
C465        S469   1.802       .  S
C466        C467   1.400       .  A
C467        C468   1.385   1_454  A
C467        H474   1.085       .  S
C468        S470   1.807       .  S
S469        H472   1.406       .  S
S470        H471   1.408       .  S
C475        C476   1.402       .  A
C475        C480   1.421   1_655  A
C476        C477   1.401       .  A
C476        H485   1.084       .  S
C477        C478   1.421   1_655  A
C477        S481   1.802       .  S
C478        C479   1.402       .  A
C479        C480   1.402       .  A
C479        H486   1.084       .  S
C480        S482   1.802       .  S
S481        H484   1.408       .  S
S482        H483   1.406       .  S
C487        C488   1.400       .  A
C487        C492   1.408       .  A
C488        C489   1.400       .  A
C488        H497   1.083       .  S
C489        C490   1.419       .  A
C489        S493   1.802       .  S
C490        C491   1.409       .  A
C491        C492   1.399       .  A
C491        H498   1.083       .  S
C492        S494   1.805       .  S
S493        H496   1.408       .  S
S494        H495   1.406       .  S
C499        C500   1.402       .  A
C499        C504   1.411       .  A
C500        C501   1.402       .  A
C500        H509   1.084       .  S
C501        C502   1.413       .  A
C501        S505   1.803       .  S
C502        C503   1.404       .  A
C503        C504   1.401       .  A
C503        H510   1.084       .  S
C504        S506   1.804       .  S
S505        H508   1.406       .  S
S506        H507   1.406       .  S
C511        C512   1.405       .  A
C511        C516   1.412       .  A
C512        C513   1.398       .  A
C512        H521   1.084       .  S
C513        C514   1.409       .  A
C513        S517   1.804       .  S
C514        C515   1.403       .  A
C515        C516   1.401       .  A
C515        H522   1.084       .  S
C516        S518   1.803       .  S
S517        H520   1.405   1_455  S
S518        H519   1.407   1_565  S
C523        C524   1.405       .  A
C523        C528   1.413       .  A
C524        C525   1.400       .  A
C524        H533   1.084       .  S
C525        C526   1.410       .  A
C525        S529   1.805       .  S
C526        C527   1.401       .  A
C527        C528   1.400       .  A
C527        H534   1.083       .  S
C528        S530   1.803       .  S
S529        H532   1.406       .  S
S530        H531   1.407       .  S
C535        C536   1.411       .  A
C535        C540   1.423   1_554  A
C536        C537   1.411   1_554  A
C536        H545   1.083       .  S
C537        C538   1.412       .  A
C537        S541   1.804       .  S
C538        C539   1.396       .  A
C539        C540   1.386       .  A
C539        H546   1.085       .  S
C540        S542   1.805   1_556  S
S541        H544   1.404       .  S
S542        H543   1.408   1_554  S
C547        C548   1.402       .  A
C547        C552   1.419       .  A
C548        C549   1.402       .  A
C548        H557   1.083       .  S
C549        C550   1.419       .  A
C549        S553   1.804       .  S
C550        C551   1.402       .  A
C551        C552   1.402       .  A
C551        H558   1.084       .  S
C552        S554   1.803       .  S
S553        H556   1.407       .  S
S554        H555   1.408       .  S
