geometry optimzed in LAMMPS
_audit_creation_date              2020-11-30 
_audit_creation_method            'lammps2cif' 
_symmetry_space_group_name_H-M    'P1' 
_symmetry_Int_Tables_number       1 
_symmetry_cell_setting            triclinic 
loop_ 
_symmetry_equiv_pos_as_xyz 
  x,y,z 
_cell_length_a                    36.85607928 
_cell_length_b                    36.85667345904659 
_cell_length_c                    36.854258300441444 
_cell_angle_alpha                 89.99975312557058 
_cell_angle_beta                  89.99986695234047 
_cell_angle_gamma                 89.99559256818056 
loop_ 
_atom_site_label 
_atom_site_type_symbol 
_atom_site_fract_x 
_atom_site_fract_y 
_atom_site_fract_z 
_atom_site_charge 
C1          C  0.43688259  0.26932032  0.39134357     0.00900
C2          C  0.43576593  0.22982097  0.39114638     0.00900
C3          C  0.40634331  0.21131098  0.40725821     0.00900
C4          C  0.39106269  0.23081094  0.43686381     0.00900
C5          C  0.39083339  0.27028599  0.43571076     0.00900
C6          C  0.40719968  0.28882459  0.40643086     0.00900
C7          C  0.39192564  0.17423561  0.39246900     0.78800
N8          N  0.36113225  0.15840484  0.40657999    -0.79500
C9          C  0.34572222  0.12759672  0.39181298     0.81300
N10         N  0.36156264  0.11345651  0.36101705    -0.79400
C11         C  0.39244489  0.12814497  0.34566369     0.81400
N12         N  0.40663892  0.15888442  0.36158429    -0.81100
C13         C  0.29007108  0.12928456  0.43553694     0.00900
C14         C  0.30860175  0.11295304  0.40623204     0.00900
C15         C  0.28917387  0.08317759  0.39117746     0.00900
C16         C  0.24965668  0.08416534  0.39101674     0.00900
C17         C  0.23105718  0.11352934  0.40719986     0.00900
C18         C  0.25059915  0.12888809  0.43676971     0.00900
C19         C  0.14872939  0.26910533  0.43681843     0.00900
C20         C  0.13336414  0.28867652  0.40726443     0.00900
C21         C  0.10387793  0.27019858  0.39117588     0.00900
C22         C  0.10279300  0.23067079  0.39132191     0.00900
C23         C  0.13248898  0.21112186  0.40640862     0.00900
C24         C  0.14890209  0.22962491  0.43567910     0.00900
C25         C  0.14710613  0.17396895  0.39198488     0.78800
N26         N  0.13295036  0.15813096  0.36118987    -0.79500
C27         C  0.14769368  0.12729766  0.34577659     0.81300
N28         N  0.17849020  0.11313917  0.36163761    -0.79400
C29         C  0.19386434  0.12784222  0.39252177     0.81400
N30         N  0.17796745  0.15858476  0.40668776    -0.81100
C31         C  0.29026443  0.41583414  0.39105492     0.00900
C32         C  0.30884426  0.38648950  0.40728127     0.00900
C33         C  0.28931117  0.37106620  0.43681494     0.00900
C34         C  0.24984338  0.37062064  0.43550129     0.00900
C35         C  0.23130052  0.38695885  0.40619042     0.00900
C36         C  0.25074551  0.41675859  0.39116843     0.00900
C37         C  0.14730782  0.37192488  0.34569051     0.78800
N38         N  0.13307353  0.34119401  0.36161860    -0.79500
C39         C  0.14780856  0.32577846  0.39247627     0.81300
N40         N  0.17865751  0.34156048  0.40655777    -0.79400
C41         C  0.19410976  0.37235964  0.39179741     0.81400
N42         N  0.17824217  0.38654674  0.36102913    -0.81100
C43         C  0.29003256  0.37096068  0.10410716     0.00900
C44         C  0.30861031  0.38723696  0.13342519     0.00900
C45         C  0.28920045  0.41700354  0.14853496     0.00900
C46         C  0.24967711  0.41599768  0.14878459     0.00900
C47         C  0.23102699  0.38666376  0.13255786     0.00900
C48         C  0.25053098  0.37133773  0.10295068     0.00900
C49         C  0.14880130  0.41585843  0.29004967     0.00900
C50         C  0.13260784  0.38642734  0.30854486     0.00900
C51         C  0.10286455  0.37137157  0.28906853     0.00900
C52         C  0.10379432  0.37133374  0.24954190     0.00900
C53         C  0.13311874  0.38763572  0.23096203     0.00900
C54         C  0.14847343  0.41716748  0.25053634     0.00900
C55         C  0.19377343  0.37237836  0.14715508     0.78800
N56         N  0.17789443  0.34160062  0.13299916    -0.79500
C57         C  0.14698930  0.32624758  0.14766711     0.81300
N58         N  0.13278167  0.34215658  0.17839782    -0.79400
C59         C  0.14750305  0.37301043  0.19378970     0.81400
N60         N  0.17833170  0.38713611  0.17797102    -0.81100
C61         C  0.14861846  0.27049567  0.10397630     0.00900
C62         C  0.13236765  0.28904280  0.13331679     0.00900
C63         C  0.10275789  0.26949012  0.14853644     0.00900
C64         C  0.10391049  0.22997467  0.14876463     0.00900
C65         C  0.13331351  0.21146818  0.13255726     0.00900
C66         C  0.14849891  0.23098634  0.10290437     0.00900
C67         C  0.28930775  0.12893731  0.10296339     0.00900
C68         C  0.30880212  0.11359994  0.13255321     0.00900
C69         C  0.29019490  0.08428129  0.14881321     0.00900
C70         C  0.25068123  0.08329329  0.14857694     0.00900
C71         C  0.23124390  0.11306073  0.13348129     0.00900
C72         C  0.24981752  0.12932951  0.10415950     0.00900
C73         C  0.14776774  0.17432398  0.14722602     0.78800
N74         N  0.17861925  0.15854244  0.13311710    -0.79500
C75         C  0.19404483  0.12769300  0.14782777     0.81300
N76         N  0.17814979  0.11347252  0.17855643    -0.79400
C77         C  0.14723097  0.12810225  0.19389953     0.81400
N78         N  0.13302153  0.15886485  0.17804043    -0.81100
C79         C  0.14862632  0.08310146  0.28903373     0.00900
C80         C  0.13331565  0.11267771  0.30858366     0.00900
C81         C  0.10392285  0.12890432  0.29003098     0.00900
C82         C  0.10285533  0.12872331  0.25051193     0.00900
C83         C  0.13255775  0.11362132  0.23102001     0.00900
C84         C  0.14883725  0.08426424  0.24952501     0.00900
C85         C  0.43691558  0.23073396  0.14851452     0.00900
C86         C  0.43574446  0.27022402  0.14878260     0.00900
C87         C  0.40639358  0.28875266  0.13255043     0.00900
C88         C  0.39127237  0.26927149  0.10286612     0.00900
C89         C  0.39110813  0.22976525  0.10393644     0.00900
C90         C  0.40731898  0.21121502  0.13329544     0.00900
C91         C  0.39133932  0.08303633  0.25052163     0.00900
C92         C  0.39105136  0.08424450  0.29003401     0.00900
C93         C  0.40714826  0.11371569  0.30852934     0.00900
C94         C  0.43679145  0.12892677  0.28904302     0.00900
C95         C  0.43580384  0.12903230  0.24954892     0.00900
C96         C  0.40654778  0.11266920  0.23098155     0.00900
C97         C  0.39270660  0.17404491  0.14767478     0.78800
N98         N  0.36183757  0.15867752  0.13299188    -0.79500
C99         C  0.34598873  0.12790165  0.14715488     0.81300
N100        N  0.36139704  0.11315561  0.17798206    -0.79400
C101        C  0.39218553  0.12730074  0.19381744     0.81400
N102        N  0.40689194  0.15816571  0.17843165    -0.81100
C103        C  0.43571619  0.37093187  0.29002474     0.00900
C104        C  0.40641404  0.38725024  0.30857782     0.00900
C105        C  0.39129143  0.41695087  0.28906237     0.00900
C106        C  0.39112106  0.41589465  0.24954161     0.00900
C107        C  0.40724378  0.38646980  0.23102770     0.00900
C108        C  0.43683667  0.37119079  0.25053321     0.00900
C109        C  0.39196913  0.32588724  0.14721338     0.78800
N110        N  0.36115753  0.34171186  0.13308558    -0.79500
C111        C  0.34576742  0.37256961  0.14780376     0.81300
N112        N  0.36165264  0.38675467  0.17855677    -0.79400
C113        C  0.39253931  0.37206552  0.19390784     0.81400
N114        N  0.40670544  0.34129738  0.17804355    -0.81100
C115        C  0.34596767  0.37215495  0.39257562     0.78800
N116        N  0.36131178  0.38684423  0.36167711    -0.79500
C117        C  0.39205203  0.37264059  0.34577765     0.81300
N118        N  0.40675481  0.34177639  0.36117695    -0.79400
C119        C  0.39261995  0.32597028  0.39199894     0.81400
N120        N  0.36181463  0.34139342  0.40673468    -0.81100
O121        O  0.05740745  0.31674762  0.39443217    -0.74300
O122        O  0.48233732  0.37431177  0.33626333    -0.75300
O123        O  0.47744088  0.32118981  0.39119596    -0.63900
O124        O  0.06227383  0.37147408  0.34093158    -0.72300
O125        O  0.05039047  0.33503812  0.29552830    -0.71900
O126        O  0.48943263  0.27556394  0.35508170    -0.63100
O127        O  0.47494377  0.32365274  0.30527616    -0.75600
O128        O  0.06460482  0.28550428  0.34393051    -0.74400
Cu129      Cu  0.01981547  0.34832197  0.36792760     1.04600
Cu130      Cu  0.01982315  0.30403671  0.32382135     1.04300
C131        C  0.07391771  0.29204974  0.37613906     0.91900
C132        C  0.46568852  0.35589770  0.31176771     0.91000
C133        C  0.46951776  0.28964663  0.37907681     0.83200
C134        C  0.07025536  0.35914898  0.30947385     0.89400
O135        O  0.39445048  0.03768987  0.33641057    -0.74300
O136        O  0.33663922  0.46245532  0.39429555    -0.75300
O137        O  0.39135209  0.45765602  0.34083083    -0.63900
O138        O  0.34110781  0.04261876  0.39121119    -0.72300
O139        O  0.29561266  0.03056945  0.35496594    -0.71900
O140        O  0.35493186  0.46941901  0.29537184    -0.63100
O141        O  0.30540026  0.45521572  0.34379588    -0.75600
O142        O  0.34384497  0.04499730  0.30533894    -0.74400
Cu143      Cu  0.36810750  0.50008955  0.36779209     1.04600
Cu144      Cu  0.32387459  0.50002661  0.32359599     1.04300
C145        C  0.37606316  0.05428929  0.31184808     0.91900
C146        C  0.31199836  0.44588094  0.37599827     0.91000
C147        C  0.37905288  0.44960304  0.30938141     0.83200
C148        C  0.30959697  0.05053507  0.37898074     0.89400
O149        O  0.33632208  0.37436153  0.05750254    -0.74300
O150        O  0.39426616  0.31627760  0.48253213    -0.75300
O151        O  0.34108441  0.37097932  0.47751698    -0.63900
O152        O  0.39121070  0.32117748  0.06235086    -0.72300
O153        O  0.35510242  0.27558385  0.05023558    -0.71900
O154        O  0.29532012  0.33517701  0.48983038    -0.63100
O155        O  0.34347992  0.28558176  0.47475485    -0.75600
O156        O  0.30530568  0.32371390  0.06477615    -0.74400
Cu157      Cu  0.36796015  0.34807856  0.01992128     1.04600
Cu158      Cu  0.32383320  0.30384035  0.01983616     1.04300
C159        C  0.31179517  0.35594122  0.07410431     0.91900
C160        C  0.37578380  0.29199225  0.46565678     0.91000
C161        C  0.30951459  0.35892719  0.46964723     0.83200
C162        C  0.37906225  0.28963228  0.07021993     0.89400
O163        O  0.20337766  0.03750315  0.39428704    -0.74300
O164        O  0.14553818  0.46230375  0.33650064    -0.75300
O165        O  0.19887432  0.45735338  0.39127169    -0.63900
O166        O  0.14872924  0.04235357  0.34078222    -0.72300
O167        O  0.18512498  0.03063565  0.29529313    -0.71900
O168        O  0.24432290  0.46931360  0.35493098    -0.63100
O169        O  0.19608892  0.45498217  0.30533676    -0.75600
O170        O  0.23457624  0.04484670  0.34376922    -0.74400
Cu171      Cu  0.17196416  0.99990186  0.36774231     1.04600
Cu172      Cu  0.21622263  0.00002140  0.32358659     1.04300
C173        C  0.22796186  0.05413644  0.37597363     0.91900
C174        C  0.16387067  0.44573070  0.31188411     0.91000
C175        C  0.23034682  0.44939245  0.37898377     0.83200
C176        C  0.16098401  0.05043607  0.30932169     0.89400
O177        O  0.48226279  0.18341305  0.39440211    -0.74300
O178        O  0.05729496  0.12560461  0.33635176    -0.75300
O179        O  0.06209819  0.17888400  0.39121136    -0.63900
O180        O  0.47736050  0.12884821  0.34086208    -0.72300
O181        O  0.48930842  0.16521897  0.29540892    -0.71900
O182        O  0.05039712  0.22438856  0.35484186    -0.63100
O183        O  0.06457390  0.17614163  0.30516839    -0.75600
O184        O  0.47488253  0.21457451  0.34385612    -0.74400
Cu185      Cu  0.01965730  0.15203688  0.36784221     1.04600
Cu186      Cu  0.01977357  0.19629002  0.32366764     1.04300
C187        C  0.46567332  0.20803015  0.37608907     0.91900
C188        C  0.07390459  0.14394233  0.31176678     0.91000
C189        C  0.07016697  0.21035505  0.37898456     0.83200
C190        C  0.46940933  0.14114950  0.30939390     0.89400
O191        O  0.24430068  0.33516316  0.05028060    -0.74300
O192        O  0.18487223  0.27514284  0.48962131    -0.75300
O193        O  0.23454029  0.32324980  0.47459316    -0.63900
O194        O  0.19594077  0.28573406  0.06488933    -0.72300
O195        O  0.14533590  0.31675096  0.05731885    -0.71900
O196        O  0.20381014  0.37403538  0.48227242    -0.63100
O197        O  0.14904361  0.32092463  0.47736114    -0.75600
O198        O  0.19876300  0.37140265  0.06222973    -0.74400
Cu199      Cu  0.21595711  0.30390396  0.01994336     1.04600
Cu200      Cu  0.17189225  0.34816761  0.01974931     1.04300
C201        C  0.23024251  0.35916171  0.07022815     0.91900
C202        C  0.16104513  0.28933087  0.46952480     0.91000
C203        C  0.22811395  0.35554230  0.46543468     0.83200
C204        C  0.16368301  0.29224392  0.07403626     0.89400
O205        O  0.35518656  0.22469859  0.48981850    -0.74300
O206        O  0.29555300  0.16510110  0.05026506    -0.75300
O207        O  0.34387478  0.21457029  0.06473569    -0.63900
O208        O  0.30544523  0.17660780  0.47472583    -0.72300
O209        O  0.33615175  0.12579755  0.48230268    -0.71900
O210        O  0.39447338  0.18350479  0.05730652    -0.63100
O211        O  0.34107635  0.12885045  0.06222971    -0.75600
O212        O  0.39093339  0.17891606  0.47734702    -0.74400
Cu213      Cu  0.32388182  0.19630087  0.01983445     1.04600
Cu214      Cu  0.36797891  0.15204830  0.01973865     1.04300
C215        C  0.37891662  0.21053225  0.46960422     0.91900
C216        C  0.30960129  0.14110642  0.07022736     0.91000
C217        C  0.37610270  0.20803106  0.07396644     0.83200
C218        C  0.31182833  0.14431680  0.46551421     0.89400
O219        O  0.39459365  0.46248534  0.20315935    -0.74300
O220        O  0.33642178  0.03756118  0.14545927    -0.75300
O221        O  0.39125055  0.04232072  0.19873630    -0.63900
O222        O  0.34116844  0.45754248  0.14840610    -0.72300
O223        O  0.29566856  0.46974963  0.18459078    -0.71900
O224        O  0.35501698  0.03045686  0.24430223    -0.63100
O225        O  0.30530890  0.04485589  0.19604405    -0.75600
O226        O  0.34397136  0.45523405  0.23420112    -0.74400
Cu227      Cu  0.36818406  0.50007463  0.17152759     1.04600
Cu228      Cu  0.32410067  0.50014154  0.21574937     1.04300
C229        C  0.37618864  0.44591162  0.22773104     0.91900
C230        C  0.31188807  0.05420577  0.16383663     0.91000
C231        C  0.37906484  0.05033656  0.23023586     0.83200
C232        C  0.30964294  0.44968717  0.16064465     0.89400
O233        O  0.05020060  0.27572756  0.18480481    -0.74300
O234        O  0.48952242  0.33508056  0.24427179    -0.75300
O235        O  0.47490292  0.28550170  0.19603604    -0.63900
O236        O  0.06443040  0.32409959  0.23438284    -0.72300
O237        O  0.05714074  0.37463945  0.20321865    -0.71900
O238        O  0.48229371  0.31650481  0.14538019    -0.63100
O239        O  0.47738964  0.37121399  0.19868784    -0.75600
O240        O  0.06204623  0.32124524  0.14849240    -0.74400
Cu241      Cu  0.01962825  0.30395007  0.21590380     1.04600
Cu242      Cu  0.01957501  0.34814209  0.17169212     1.04300
C243        C  0.07007122  0.28977524  0.16075043     0.91900
C244        C  0.46951326  0.35902347  0.23021483     0.91000
C245        C  0.46567059  0.29199081  0.16379215     0.83200
C246        C  0.07374491  0.35630809  0.22781573     0.89400
O247        O  0.48959820  0.22452612  0.18459870    -0.74300
O248        O  0.05021215  0.16489578  0.24414774    -0.75300
O249        O  0.06460791  0.21464222  0.19595828    -0.63900
O250        O  0.47503486  0.17630317  0.23427787    -0.72300
O251        O  0.48244764  0.12564399  0.20330743    -0.71900
O252        O  0.05741000  0.18355803  0.14534114    -0.63100
O253        O  0.06229168  0.12869980  0.19861348    -0.75600
O254        O  0.47748530  0.17889841  0.14851900    -0.74400
Cu255      Cu  0.01975615  0.19608990  0.21586345     1.04600
Cu256      Cu  0.01983958  0.15191438  0.17166575     1.04300
C257        C  0.46960096  0.21043729  0.16067388     0.91900
C258        C  0.07018993  0.14090756  0.23013513     0.91000
C259        C  0.07394203  0.20815259  0.16374136     0.83200
C260        C  0.46580166  0.14404992  0.22781485     0.89400
O261        O  0.20351788  0.46275535  0.14544905    -0.74300
O262        O  0.14546642  0.03772943  0.20314406    -0.75300
O263        O  0.19877899  0.04273759  0.14838444    -0.63900
O264        O  0.14871070  0.45795575  0.19877175    -0.72300
O265        O  0.18499412  0.46967680  0.24433111    -0.71900
O266        O  0.24432017  0.03048996  0.18450632    -0.63100
O267        O  0.19609805  0.04507272  0.23416391    -0.75600
O268        O  0.23465497  0.45539604  0.19601188    -0.74400
Cu269      Cu  0.17187097  0.00020318  0.17150991     1.04600
Cu270      Cu  0.21627073  0.50026711  0.21611718     1.04300
C271        C  0.22803344  0.44607340  0.16381136     0.91900
C272        C  0.16385695  0.05432826  0.22770234     0.91000
C273        C  0.23029675  0.05058725  0.16062063     0.83200
C274        C  0.16087670  0.44986855  0.23026572     0.89400
O275        O  0.14560787  0.18353289  0.48247607    -0.74300
O276        O  0.20357087  0.12588971  0.05755718    -0.75300
O277        O  0.14871031  0.17909477  0.06237042    -0.63900
O278        O  0.19885196  0.12885909  0.47743803    -0.72300
O279        O  0.24460994  0.16467102  0.48977813    -0.71900
O280        O  0.18483614  0.22469654  0.05032544    -0.63100
O281        O  0.23457714  0.17654562  0.06484100    -0.75600
O282        O  0.19637747  0.21421561  0.47461370    -0.74400
Cu283      Cu  0.17197811  0.15215338  0.01996506     1.04600
Cu284      Cu  0.21611519  0.19638815  0.01989277     1.04300
C285        C  0.16403853  0.20785486  0.46558741     0.91900
C286        C  0.22807254  0.14432680  0.07416939     0.91000
C287        C  0.16083035  0.21064268  0.07027046     0.83200
C288        C  0.23040967  0.14094358  0.46958762     0.89400
C289        C  0.43693836  0.26939991  0.89122946     0.00900
C290        C  0.43575974  0.22990797  0.89093519     0.00900
C291        C  0.40638528  0.21138635  0.90710628     0.00900
C292        C  0.39125043  0.23085387  0.93679419     0.00900
C293        C  0.39107997  0.27035822  0.93574381     0.00900
C294        C  0.40733200  0.28892247  0.90642736     0.00900
C295        C  0.39197139  0.17426081  0.89240851     0.78800
N296        N  0.36115231  0.15846069  0.90652392    -0.79500
C297        C  0.34576157  0.12760655  0.89181322     0.81300
N298        N  0.36165038  0.11339332  0.86108053    -0.79400
C299        C  0.39254732  0.12804700  0.84573389     0.81400
N300        N  0.40672173  0.15882652  0.86158776    -0.81100
C301        C  0.29006507  0.12925370  0.93552685     0.00900
C302        C  0.30861165  0.11296826  0.90619358     0.00900
C303        C  0.28918326  0.08322059  0.89107133     0.00900
C304        C  0.24967373  0.08423636  0.89085196     0.00900
C305        C  0.23105886  0.11356757  0.90710824     0.00900
C306        C  0.25057359  0.12891072  0.93670992     0.00900
C307        C  0.14861961  0.26926331  0.93690925     0.00900
C308        C  0.13326720  0.28872250  0.90735647     0.00900
C309        C  0.10374098  0.27015650  0.89144108     0.00900
C310        C  0.10276196  0.23059327  0.89159127     0.00900
C311        C  0.13253889  0.21116748  0.90653702     0.00900
C312        C  0.14891440  0.22976617  0.93577825     0.00900
C313        C  0.14709450  0.17398911  0.89207800     0.78800
N314        N  0.13282154  0.15809555  0.86133677    -0.79500
C315        C  0.14752450  0.12722993  0.84591657     0.81300
N316        N  0.17836656  0.11310813  0.86171023    -0.79400
C317        C  0.19383644  0.12785934  0.89251732     0.81400
N318        N  0.17799693  0.15862642  0.90669382    -0.81100
C319        C  0.29021436  0.41585956  0.89088071     0.00900
C320        C  0.30882379  0.38654903  0.90715194     0.00900
C321        C  0.28931317  0.37119404  0.93672073     0.00900
C322        C  0.24982616  0.37079110  0.93552793     0.00900
C323        C  0.23126877  0.38703669  0.90618725     0.00900
C324        C  0.25069911  0.41680843  0.89107478     0.00900
C325        C  0.14725593  0.37196723  0.84581466     0.78800
N326        N  0.13298823  0.34124911  0.86173323    -0.79500
C327        C  0.14773078  0.32582203  0.89256438     0.81300
N328        N  0.17861654  0.34158949  0.90662501    -0.79400
C329        C  0.19407246  0.37239541  0.89186081     0.81400
N330        N  0.17819582  0.38657767  0.86111865    -0.81100
C331        C  0.29013811  0.37051075  0.60433394     0.00900
C332        C  0.30862512  0.38685938  0.63365060     0.00900
C333        C  0.28918617  0.41662946  0.64869371     0.00900
C334        C  0.24968431  0.41565254  0.64880402     0.00900
C335        C  0.23112521  0.38629255  0.63259114     0.00900
C336        C  0.25068323  0.37089466  0.60304567     0.00900
C337        C  0.14894347  0.41572627  0.79012729     0.00900
C338        C  0.13262390  0.38643064  0.80868645     0.00900
C339        C  0.10287670  0.37138004  0.78926486     0.00900
C340        C  0.10384758  0.37120732  0.74970494     0.00900
C341        C  0.13332072  0.38725334  0.73112295     0.00900
C342        C  0.14866595  0.41683518  0.75062008     0.00900
C343        C  0.19396906  0.37198407  0.64726394     0.78800
N344        N  0.17813401  0.34124383  0.63307970    -0.79500
C345        C  0.14727375  0.32585704  0.64772749     0.81300
N346        N  0.13303609  0.34168639  0.67851481    -0.79400
C347        C  0.14774148  0.37253755  0.69395631     0.81400
N348        N  0.17855397  0.38668815  0.67812469    -0.81100
C349        C  0.14930447  0.27016371  0.60405392     0.00900
C350        C  0.13274699  0.28872836  0.63319964     0.00900
C351        C  0.10286147  0.26932585  0.64797775     0.00900
C352        C  0.10376761  0.22975033  0.64805854     0.00900
C353        C  0.13338211  0.21120171  0.63229535     0.00900
C354        C  0.14892920  0.23070021  0.60284891     0.00900
C355        C  0.28931784  0.12885044  0.60303870     0.00900
C356        C  0.30885082  0.11342179  0.63257560     0.00900
C357        C  0.29027063  0.08407477  0.64878626     0.00900
C358        C  0.25075472  0.08315364  0.64865367     0.00900
C359        C  0.23131590  0.11294949  0.63359587     0.00900
C360        C  0.24985223  0.12928743  0.60429186     0.00900
C361        C  0.14781316  0.17413327  0.64719320     0.78800
N362        N  0.17867906  0.15834335  0.63315763    -0.79500
C363        C  0.19414191  0.12756971  0.64795561     0.81300
N364        N  0.17828777  0.11342098  0.67873228    -0.79400
C365        C  0.14735097  0.12804760  0.69403366     0.81400
N366        N  0.13307278  0.15875438  0.67806637    -0.81100
C367        C  0.14851018  0.08295748  0.78925035     0.00900
C368        C  0.13311808  0.11250950  0.80875766     0.00900
C369        C  0.10372635  0.12864267  0.79012815     0.00900
C370        C  0.10290976  0.12859254  0.75056299     0.00900
C371        C  0.13269467  0.11357112  0.73118095     0.00900
C372        C  0.14892078  0.08420020  0.74973806     0.00900
C373        C  0.43690437  0.23054095  0.64846505     0.00900
C374        C  0.43577349  0.27003984  0.64869038     0.00900
C375        C  0.40633231  0.28853752  0.63262694     0.00900
C376        C  0.39105739  0.26904841  0.60300675     0.00900
C377        C  0.39083192  0.22957540  0.60413967     0.00900
C378        C  0.40722528  0.21103110  0.63339086     0.00900
C379        C  0.39139030  0.08290892  0.75065411     0.00900
C380        C  0.39114852  0.08410889  0.79016207     0.00900
C381        C  0.40726316  0.11356043  0.80864313     0.00900
C382        C  0.43690314  0.12873662  0.78916039     0.00900
C383        C  0.43587629  0.12885958  0.74966406     0.00900
C384        C  0.40658248  0.11253174  0.73110839     0.00900
C385        C  0.39267619  0.17387396  0.64779588     0.78800
N386        N  0.36183596  0.15848660  0.63310189    -0.79500
C387        C  0.34600566  0.12771456  0.64724635     0.81300
N388        N  0.36140369  0.11298109  0.67809539    -0.79400
C389        C  0.39218243  0.12715375  0.69394783     0.81400
N390        N  0.40686906  0.15802406  0.67856215    -0.81100
C391        C  0.43589452  0.37113721  0.79029504     0.00900
C392        C  0.40667024  0.38753388  0.80887468     0.00900
C393        C  0.39140627  0.41710089  0.78930783     0.00900
C394        C  0.39103225  0.41574464  0.74980750     0.00900
C395        C  0.40710756  0.38623439  0.73134884     0.00900
C396        C  0.43679363  0.37112069  0.75080355     0.00900
C397        C  0.39191917  0.32560165  0.64745097     0.78800
N398        N  0.36113331  0.34142380  0.63333654    -0.79500
C399        C  0.34571977  0.37222960  0.64808839     0.81300
N400        N  0.36153937  0.38639314  0.67887631    -0.79400
C401        C  0.39241637  0.37172429  0.69424097     0.81400
N402        N  0.40662489  0.34096867  0.67834128    -0.81100
C403        C  0.34603879  0.37227243  0.89260022     0.78800
N404        N  0.36149251  0.38705148  0.86181765    -0.79500
C405        C  0.39229930  0.37291249  0.84601498     0.81300
N406        N  0.40698598  0.34203104  0.86137924    -0.79400
C407        C  0.39275464  0.32611887  0.89208961     0.81400
N408        N  0.36186386  0.34147399  0.90674345    -0.81100
O409        O  0.05757688  0.31698897  0.89477474    -0.74300
O410        O  0.48252049  0.37449114  0.83653685    -0.75300
O411        O  0.47756029  0.32119037  0.89128303    -0.63900
O412        O  0.06206318  0.37171920  0.84105567    -0.72300
O413        O  0.05099628  0.33443692  0.79612903    -0.71900
O414        O  0.48955804  0.27560415  0.85510478    -0.63100
O415        O  0.47510664  0.32387262  0.80550262    -0.75600
O416        O  0.06401209  0.28508434  0.84460683    -0.74400
Cu417      Cu  0.01977194  0.34834782  0.86836269     1.04600
Cu418      Cu  0.01979838  0.30395683  0.82410579     1.04300
C419        C  0.07368746  0.29194535  0.87660573     0.91900
C420        C  0.46589010  0.35611836  0.81200020     0.91000
C421        C  0.46962190  0.28968237  0.87908153     0.83200
C422        C  0.07037802  0.35905099  0.80979339     0.89400
O423        O  0.39455769  0.03760923  0.83656729    -0.74300
O424        O  0.33638112  0.46264488  0.89430659    -0.75300
O425        O  0.39125785  0.45787004  0.84106913    -0.63900
O426        O  0.34110197  0.04264214  0.89122578    -0.72300
O427        O  0.29560475  0.03046286  0.85502042    -0.71900
O428        O  0.35511643  0.46974895  0.79543656    -0.63100
O429        O  0.30536674  0.45530617  0.84367155    -0.75600
O430        O  0.34394906  0.04492322  0.80549835    -0.74400
Cu431      Cu  0.36789032  0.50030694  0.86793989     1.04600
Cu432      Cu  0.32378639  0.50023942  0.82365310     1.04300
C433        C  0.37617256  0.05418646  0.81199017     0.91900
C434        C  0.31189988  0.44596574  0.87589127     0.91000
C435        C  0.37912731  0.44984834  0.80954831     0.83200
C436        C  0.30959194  0.05052171  0.87896672     0.89400
O437        O  0.33619844  0.37403774  0.55757538    -0.74300
O438        O  0.39443819  0.31662027  0.98235723    -0.75300
O439        O  0.34105777  0.37127969  0.97745215    -0.63900
O440        O  0.39096917  0.32094416  0.56253146    -0.72300
O441        O  0.35527706  0.27514768  0.54999129    -0.71900
O442        O  0.29553200  0.33501342  0.98937661    -0.63100
O443        O  0.34384664  0.28554064  0.97495460    -0.75600
O444        O  0.30555933  0.32319532  0.56518758    -0.74400
Cu445      Cu  0.36783690  0.34777325  0.52004768     1.04600
Cu446      Cu  0.32376014  0.30362399  0.51993933     1.04300
C447        C  0.31191437  0.35549234  0.57438376     0.91900
C448        C  0.37607068  0.29208538  0.96571400     0.91000
C449        C  0.30958966  0.35902038  0.96944261     0.83200
C450        C  0.37896046  0.28932370  0.57025077     0.89400
O451        O  0.20352337  0.03747633  0.89429865    -0.74300
O452        O  0.14553282  0.46231307  0.83644409    -0.75300
O453        O  0.19879045  0.45735875  0.89122503    -0.63900
O454        O  0.14864327  0.04228571  0.84109827    -0.72300
O455        O  0.18477329  0.03031371  0.79549051    -0.71900
O456        O  0.24433265  0.46957642  0.85509441    -0.63100
O457        O  0.19616215  0.45504274  0.80539913    -0.75600
O458        O  0.23454674  0.04479834  0.84366157    -0.74400
Cu459      Cu  0.17199795  0.99982998  0.86795546     1.04600
Cu460      Cu  0.21611608  0.99985624  0.82370240     1.04300
C461        C  0.22799831  0.05414854  0.87587264     0.91900
C462        C  0.16394273  0.44572004  0.81189809     0.91000
C463        C  0.23030737  0.44949711  0.87899345     0.83200
C464        C  0.16078133  0.05025519  0.80956765     0.89400
O465        O  0.48223075  0.18354568  0.89436757    -0.74300
O466        O  0.05748653  0.12531337  0.83691781    -0.75300
O467        O  0.06197745  0.17878974  0.89187817    -0.63900
O468        O  0.47736702  0.12877485  0.84106728    -0.72300
O469        O  0.48944437  0.16498648  0.79552750    -0.71900
O470        O  0.05089996  0.22378457  0.85468471    -0.63100
O471        O  0.06381910  0.17548532  0.80501652    -0.75600
O472        O  0.47495181  0.21460564  0.84372937    -0.74400
Cu473      Cu  0.01968369  0.15162348  0.86839049     1.04600
Cu474      Cu  0.01963873  0.19602015  0.82411693     1.04300
C475        C  0.46568183  0.20811575  0.87595802     0.91900
C476        C  0.07357593  0.14349358  0.81186973     0.91000
C477        C  0.07027474  0.21007603  0.87926905     0.83200
C478        C  0.46950181  0.14097338  0.80953743     0.89400
O479        O  0.24475492  0.33507354  0.54998754    -0.74300
O480        O  0.18463320  0.27558201  0.98966659    -0.75300
O481        O  0.23448632  0.32362258  0.97492400    -0.63900
O482        O  0.19667931  0.28539987  0.56495777    -0.72300
O483        O  0.14591881  0.31618840  0.55730689    -0.71900
O484        O  0.20359435  0.37435714  0.98216163    -0.63100
O485        O  0.14868965  0.32124228  0.97732784    -0.75600
O486        O  0.19898872  0.37088732  0.56230521    -0.74400
Cu487      Cu  0.21637334  0.30355970  0.51978680     1.04600
Cu488      Cu  0.17224955  0.34771172  0.51980339     1.04300
C489        C  0.23053451  0.35880006  0.57018823     0.91900
C490        C  0.16078079  0.28964809  0.96956515     0.91000
C491        C  0.22805802  0.35585271  0.96555708     0.83200
C492        C  0.16439673  0.29186227  0.57412367     0.89400
O493        O  0.35517304  0.22456003  0.98948228    -0.74300
O494        O  0.29531591  0.16474381  0.55008172    -0.75300
O495        O  0.34347419  0.21430741  0.56508889    -0.63900
O496        O  0.30538594  0.17647807  0.97485635    -0.72300
O497        O  0.33632986  0.12578677  0.98215175    -0.71900
O498        O  0.39424180  0.18356606  0.55733420    -0.63100
O499        O  0.34106776  0.12888940  0.56234756    -0.75600
O500        O  0.39121757  0.17893510  0.97729232    -0.74400
Cu501      Cu  0.32370914  0.19623846  0.51993167     1.04600
Cu502      Cu  0.36780318  0.15207887  0.51982462     1.04300
C503        C  0.37908248  0.21049297  0.96945080     0.91900
C504        C  0.30951431  0.14097484  0.57023309     0.91000
C505        C  0.37577287  0.20787379  0.57419490     0.83200
C506        C  0.31184217  0.14424395  0.96552994     0.89400
O507        O  0.39441745  0.46220018  0.70340247    -0.74300
O508        O  0.33659139  0.03739914  0.64547929    -0.75300
O509        O  0.39135135  0.04216422  0.69890099    -0.63900
O510        O  0.34108974  0.45718819  0.64865684    -0.72300
O511        O  0.29558166  0.46925201  0.68489268    -0.71900
O512        O  0.35500927  0.03040211  0.74441746    -0.63100
O513        O  0.30543132  0.04467781  0.69602415    -0.75600
O514        O  0.34381053  0.45489318  0.73448927    -0.74400
Cu515      Cu  0.36800629  0.49971899  0.67181744     1.04600
Cu516      Cu  0.32388720  0.49974900  0.71604667     1.04300
C517        C  0.37602952  0.44562264  0.72796971     0.91900
C518        C  0.31199808  0.05400721  0.66381419     0.91000
C519        C  0.37911173  0.05022306  0.73037354     0.83200
C520        C  0.30958328  0.44927500  0.66089138     0.89400
O521        O  0.05114509  0.27619951  0.68503030    -0.74300
O522        O  0.48921906  0.33476205  0.74432204    -0.75300
O523        O  0.47494977  0.28533722  0.69591671    -0.63900
O524        O  0.06401114  0.32434444  0.73479147    -0.72300
O525        O  0.05764775  0.37452023  0.70288786    -0.71900
O526        O  0.48214112  0.31656514  0.64538538    -0.63100
O527        O  0.47724823  0.37119089  0.69891314    -0.75600
O528        O  0.06208776  0.32116744  0.64777854    -0.74400
Cu529      Cu  0.01983691  0.30382017  0.71566693     1.04600
Cu530      Cu  0.01979792  0.34825988  0.67142435     1.04300
C531        C  0.07042834  0.28988464  0.66037146     0.91900
C532        C  0.46934379  0.35887311  0.73038885     0.91000
C533        C  0.46567281  0.29187130  0.66370328     0.83200
C534        C  0.07375134  0.35633684  0.72792681     0.89400
O535        O  0.48937384  0.22431257  0.68475821    -0.74300
O536        O  0.05123757  0.16572586  0.74354303    -0.75300
O537        O  0.06398323  0.21487605  0.69488047    -0.63900
O538        O  0.47506482  0.17614813  0.73446136    -0.72300
O539        O  0.48248736  0.12554435  0.70339796    -0.71900
O540        O  0.05767197  0.18276498  0.64484975    -0.63100
O541        O  0.06209430  0.12815446  0.69879245    -0.75600
O542        O  0.47754625  0.17873737  0.64852015    -0.74400
Cu543      Cu  0.01987940  0.19596993  0.71558326     1.04600
Cu544      Cu  0.01982488  0.15147238  0.67139730     1.04300
C545        C  0.46954056  0.21023721  0.66070555     0.91900
C546        C  0.07048817  0.14096255  0.72997985     0.91000
C547        C  0.07370158  0.20793821  0.66291554     0.83200
C548        C  0.46584407  0.14390741  0.72793635     0.89400
O549        O  0.20340434  0.46231454  0.64541901    -0.74300
O550        O  0.14560559  0.03767799  0.70337902    -0.75300
O551        O  0.19887730  0.04257121  0.64858516    -0.63900
O552        O  0.14867443  0.45747983  0.69879795    -0.72300
O553        O  0.18493926  0.46940377  0.74432610    -0.71900
O554        O  0.24434870  0.03058434  0.68488933    -0.63100
O555        O  0.19616964  0.04493729  0.73453853    -0.75600
O556        O  0.23450374  0.45501423  0.69600466    -0.74400
Cu557      Cu  0.17196756  0.00009220  0.67182416     1.04600
Cu558      Cu  0.21609568  0.49989693  0.71605176     1.04300
C559        C  0.22795758  0.44569497  0.66379294     0.91900
C560        C  0.16396720  0.05425734  0.72796493     0.91000
C561        C  0.23035822  0.05052038  0.66085241     0.83200
C562        C  0.16090591  0.44949624  0.73028896     0.89400
O563        O  0.14556472  0.18357498  0.98239500    -0.74300
O564        O  0.20382827  0.12575404  0.55747932    -0.75300
O565        O  0.14902598  0.17879283  0.56243319    -0.63900
O566        O  0.19884591  0.12888998  0.97749206    -0.72300
O567        O  0.24438761  0.16512630  0.98940730    -0.71900
O568        O  0.18464574  0.22462349  0.54981901    -0.63100
O569        O  0.23443900  0.17661185  0.56508797    -0.75600
O570        O  0.19615780  0.21466763  0.97498979    -0.74400
Cu571      Cu  0.17212586  0.15201001  0.51996424     1.04600
Cu572      Cu  0.21616827  0.19617851  0.51982100     1.04300
C573        C  0.16394640  0.20807847  0.96573193     0.91900
C574        C  0.22810127  0.14430829  0.57429859     0.91000
C575        C  0.16100952  0.21042948  0.57010898     0.83200
C576        C  0.23031244  0.14112712  0.96945820     0.89400
C577        C  0.43682259  0.76923124  0.39135254     0.00900
C578        C  0.43582369  0.72972258  0.39121540     0.00900
C579        C  0.40644759  0.71113511  0.40732371     0.00900
C580        C  0.39110347  0.73060605  0.43690420     0.00900
C581        C  0.39070497  0.77008471  0.43567911     0.00900
C582        C  0.40705983  0.78865781  0.40639381     0.00900
C583        C  0.39208995  0.67403583  0.39252941     0.78800
N584        N  0.36132715  0.65816358  0.40665352    -0.79500
C585        C  0.34590919  0.62738032  0.39184933     0.81300
N586        N  0.36171271  0.61329279  0.36101335    -0.79400
C587        C  0.39256795  0.62801164  0.34565244     0.81400
N588        N  0.40677232  0.65873616  0.36160405    -0.81100
C589        C  0.29027790  0.62898435  0.43559599     0.00900
C590        C  0.30878392  0.61274673  0.40623625     0.00900
C591        C  0.28930806  0.58308762  0.39105635     0.00900
C592        C  0.24980043  0.58411215  0.39090809     0.00900
C593        C  0.23125168  0.61348658  0.40712770     0.00900
C594        C  0.25079455  0.62875226  0.43674273     0.00900
C595        C  0.14886458  0.76927030  0.43674278     0.00900
C596        C  0.13345302  0.78874480  0.40716578     0.00900
C597        C  0.10395705  0.77017288  0.39118034     0.00900
C598        C  0.10296127  0.73062158  0.39137964     0.00900
C599        C  0.13276563  0.71119336  0.40639134     0.00900
C600        C  0.14923054  0.72978899  0.43559119     0.00900
C601        C  0.14735384  0.67402531  0.39199413     0.78800
N602        N  0.13307506  0.65812329  0.36128622    -0.79500
C603        C  0.14775360  0.62725124  0.34590348     0.81300
N604        N  0.17858740  0.61310434  0.36169816    -0.79400
C605        C  0.19406913  0.62785725  0.39249575     0.81400
N606        N  0.17825688  0.65865921  0.40663255    -0.81100
C607        C  0.29021195  0.91582916  0.39095143     0.00900
C608        C  0.30873060  0.88644315  0.40717937     0.00900
C609        C  0.28918552  0.87111499  0.43674647     0.00900
C610        C  0.24971221  0.87084295  0.43551844     0.00900
C611        C  0.23122170  0.88712845  0.40615548     0.00900
C612        C  0.25070676  0.91684383  0.39104806     0.00900
C613        C  0.14743256  0.87197019  0.34550331     0.78800
N614        N  0.13318606  0.84122006  0.36141343    -0.79500
C615        C  0.14786720  0.82584502  0.39232164     0.81300
N616        N  0.17865884  0.84168218  0.40645698    -0.79400
C617        C  0.19410381  0.87248342  0.39170536     0.81400
N618        N  0.17830784  0.88663102  0.36089385    -0.81100
C619        C  0.29016591  0.87080119  0.10411747     0.00900
C620        C  0.30864487  0.88714371  0.13343355     0.00900
C621        C  0.28913844  0.91684915  0.14856049     0.00900
C622        C  0.24963456  0.91584823  0.14862714     0.00900
C623        C  0.23110484  0.88645320  0.13244451     0.00900
C624        C  0.25069908  0.87106741  0.10291661     0.00900
C625        C  0.14907730  0.91582578  0.28978334     0.00900
C626        C  0.13279890  0.88647781  0.30834958     0.00900
C627        C  0.10295151  0.87153616  0.28897617     0.00900
C628        C  0.10376463  0.87149765  0.24941506     0.00900
C629        C  0.13316881  0.88759188  0.23078841     0.00900
C630        C  0.14858808  0.91710351  0.25028037     0.00900
C631        C  0.19388004  0.87219353  0.14705296     0.78800
N632        N  0.17801370  0.84143963  0.13290722    -0.79500
C633        C  0.14708852  0.82613609  0.14754004     0.81300
N634        N  0.13282941  0.84205060  0.17825060    -0.79400
C635        C  0.14756483  0.87288942  0.19364827     0.81400
N636        N  0.17842603  0.88697002  0.17785269    -0.81100
C637        C  0.14901093  0.77037713  0.10399833     0.00900
C638        C  0.13251955  0.78898072  0.13314922     0.00900
C639        C  0.10275125  0.76954181  0.14814605     0.00900
C640        C  0.10381277  0.72999486  0.14839272     0.00900
C641        C  0.13335742  0.71145186  0.13248356     0.00900
C642        C  0.14872637  0.73090689  0.10290199     0.00900
C643        C  0.28930015  0.62927806  0.10300490     0.00900
C644        C  0.30889906  0.61385215  0.13247689     0.00900
C645        C  0.29039072  0.58446177  0.14868575     0.00900
C646        C  0.25088450  0.58350581  0.14870459     0.00900
C647        C  0.23138531  0.61327585  0.13366476     0.00900
C648        C  0.24984792  0.62961746  0.10432334     0.00900
C649        C  0.14785408  0.67439681  0.14735291     0.78800
N650        N  0.17872470  0.65864395  0.13328590    -0.79500
C651        C  0.19422217  0.62787078  0.14805602     0.81300
N652        N  0.17840062  0.61368465  0.17882406    -0.79400
C653        C  0.14746108  0.62826906  0.19414604     0.81400
N654        N  0.13315023  0.65898016  0.17822214    -0.81100
C655        C  0.14870456  0.58305234  0.28928889     0.00900
C656        C  0.13329983  0.61255422  0.30879094     0.00900
C657        C  0.10387503  0.62866402  0.29018598     0.00900
C658        C  0.10299205  0.62864828  0.25063338     0.00900
C659        C  0.13282581  0.61372412  0.23125755     0.00900
C660        C  0.14914028  0.58438254  0.24979688     0.00900
C661        C  0.43703710  0.73087867  0.14814314     0.00900
C662        C  0.43595565  0.77038101  0.14831060     0.00900
C663        C  0.40653299  0.78891502  0.13226255     0.00900
C664        C  0.39127345  0.76943311  0.10267311     0.00900
C665        C  0.39096748  0.72995878  0.10384405     0.00900
C666        C  0.40733628  0.71140833  0.13310372     0.00900
C667        C  0.39144641  0.58318483  0.25032975     0.00900
C668        C  0.39106609  0.58428320  0.28985426     0.00900
C669        C  0.40720698  0.61367130  0.30846568     0.00900
C670        C  0.43686755  0.62891046  0.28905605     0.00900
C671        C  0.43585297  0.62920278  0.24955091     0.00900
C672        C  0.40660047  0.61291145  0.23091047     0.00900
C673        C  0.39276148  0.67428083  0.14755939     0.78800
N674        N  0.36190007  0.65891003  0.13289350    -0.79500
C675        C  0.34606230  0.62815777  0.14707359     0.81300
N676        N  0.36146476  0.61343512  0.17791173    -0.79400
C677        C  0.39224956  0.62758420  0.19374704     0.81400
N678        N  0.40695897  0.65844022  0.17833963    -0.81100
C679        C  0.43568703  0.87093262  0.29001508     0.00900
C680        C  0.40638149  0.88719866  0.30863026     0.00900
C681        C  0.39121138  0.91689755  0.28918852     0.00900
C682        C  0.39088894  0.91574372  0.24967716     0.00900
C683        C  0.40710285  0.88638502  0.23109038     0.00900
C684        C  0.43676751  0.87119886  0.25051276     0.00900
C685        C  0.39209139  0.82598319  0.14706461     0.78800
N686        N  0.36127172  0.84178974  0.13297542    -0.79500
C687        C  0.34580255  0.87255224  0.14778550     0.81300
N688        N  0.36160334  0.88667105  0.17859479    -0.79400
C689        C  0.39250028  0.87201304  0.19392271     0.81400
N690        N  0.40676803  0.84132081  0.17796837    -0.81100
C691        C  0.34583409  0.87202629  0.39249851     0.78800
N692        N  0.36123637  0.88673068  0.36164604    -0.79500
C693        C  0.39198399  0.87252148  0.34577597     0.81300
N694        N  0.40664839  0.84162977  0.36115549    -0.79400
C695        C  0.39245620  0.82579714  0.39194249     0.81400
N696        N  0.36163055  0.84122492  0.40664772    -0.81100
O697        O  0.05767684  0.81691181  0.39448069    -0.74300
O698        O  0.48219171  0.87434375  0.33633488    -0.75300
O699        O  0.47738672  0.82114232  0.39124289    -0.63900
O700        O  0.06234899  0.87174924  0.34091581    -0.72300
O701        O  0.05090992  0.83480159  0.29581505    -0.71900
O702        O  0.48921009  0.77566808  0.35488059    -0.63100
O703        O  0.47508197  0.82379371  0.30511102    -0.75600
O704        O  0.06430229  0.78523220  0.34419083    -0.74400
Cu705      Cu  0.01996283  0.84844773  0.36809566     1.04600
Cu706      Cu  0.01988451  0.80414845  0.32384331     1.04300
C707        C  0.07390142  0.79197589  0.37626116     0.91900
C708        C  0.46569197  0.85596564  0.31171674     0.91000
C709        C  0.46939930  0.78964751  0.37901990     0.83200
C710        C  0.07048056  0.85923052  0.30955223     0.89400
O711        O  0.39442858  0.53772215  0.33621098    -0.74300
O712        O  0.33648198  0.96251049  0.39442293    -0.75300
O713        O  0.39127044  0.95755763  0.34108063    -0.63900
O714        O  0.34116594  0.54250295  0.39105118    -0.72300
O715        O  0.29570354  0.53064147  0.35467918    -0.71900
O716        O  0.35515952  0.96966252  0.29549721    -0.63100
O717        O  0.30550297  0.95519571  0.34377051    -0.75600
O718        O  0.34389604  0.54483466  0.30496917    -0.74400
Cu719      Cu  0.36804621  0.00010333  0.36799854     1.04600
Cu720      Cu  0.32392140  0.00010982  0.32378654     1.04300
C721        C  0.37607023  0.55424706  0.31158162     0.91900
C722        C  0.31197765  0.94587535  0.37599814     0.91000
C723        C  0.37908434  0.94963202  0.30955115     0.83200
C724        C  0.30968994  0.55048768  0.37878370     0.89400
O725        O  0.33624116  0.87439702  0.05733062    -0.74300
O726        O  0.39407018  0.81617787  0.48237784    -0.75300
O727        O  0.34095895  0.87096368  0.47742604    -0.63900
O728        O  0.39115577  0.82139509  0.06230743    -0.72300
O729        O  0.35557463  0.77553463  0.04969214    -0.71900
O730        O  0.29525413  0.83501390  0.48957387    -0.63100
O731        O  0.34336453  0.78528524  0.47482905    -0.75600
O732        O  0.30571556  0.82349649  0.06497921    -0.74400
Cu733      Cu  0.36797183  0.84812890  0.01983794     1.04600
Cu734      Cu  0.32397572  0.80391214  0.01976296     1.04300
C735        C  0.31197066  0.85582299  0.07413918     0.91900
C736        C  0.37562613  0.79178578  0.46562141     0.91000
C737        C  0.30941294  0.85887577  0.46950700     0.83200
C738        C  0.37921467  0.78973166  0.06995753     0.89400
O739        O  0.20355486  0.53743472  0.39444166    -0.74300
O740        O  0.14571716  0.96232434  0.33612760    -0.75300
O741        O  0.19885341  0.95744714  0.39100570    -0.63900
O742        O  0.14874426  0.54236128  0.34113607    -0.72300
O743        O  0.18484591  0.53031692  0.29552561    -0.71900
O744        O  0.24439212  0.96942169  0.35477546    -0.63100
O745        O  0.19629850  0.95517523  0.30495362    -0.75600
O746        O  0.23453949  0.54468545  0.34378182    -0.74400
Cu747      Cu  0.17196935  0.49985406  0.36805628     1.04600
Cu748      Cu  0.21606490  0.49981884  0.32378815     1.04300
C749        C  0.22805900  0.55404243  0.37599536     0.91900
C750        C  0.16411063  0.94578522  0.31154210     0.91000
C751        C  0.23035432  0.94949103  0.37879362     0.83200
C752        C  0.16090198  0.55031046  0.30960185     0.89400
O753        O  0.48233045  0.68334374  0.39452985    -0.74300
O754        O  0.05746635  0.62530822  0.33676556    -0.75300
O755        O  0.06210929  0.67884432  0.39155928    -0.63900
O756        O  0.47741466  0.62874805  0.34095753    -0.72300
O757        O  0.48932997  0.66519689  0.29556913    -0.71900
O758        O  0.05087393  0.72397621  0.35458957    -0.63100
O759        O  0.06418734  0.67558882  0.30509505    -0.75600
O760        O  0.47504885  0.71455896  0.34400884    -0.74400
Cu761      Cu  0.01969779  0.65176008  0.36812664     1.04600
Cu762      Cu  0.01979196  0.69602654  0.32382450     1.04300
C763        C  0.46578903  0.70798828  0.37621596     0.91900
C764        C  0.07377229  0.64353820  0.31189712     0.91000
C765        C  0.07038955  0.71016673  0.37904161     0.83200
C766        C  0.46946353  0.64108456  0.30949177     0.89400
O767        O  0.24472144  0.83500232  0.05009960    -0.74300
O768        O  0.18471520  0.77540484  0.48971171    -0.75300
O769        O  0.23432258  0.82355781  0.47465821    -0.63900
O770        O  0.19646044  0.78553249  0.06497524    -0.72300
O771        O  0.14578607  0.81643917  0.05725930    -0.71900
O772        O  0.20363225  0.87435886  0.48229625    -0.63100
O773        O  0.14891948  0.82115214  0.47729162    -0.75600
O774        O  0.19904230  0.87103704  0.06218023    -0.74400
Cu775      Cu  0.21632038  0.80362617  0.01986279     1.04600
Cu776      Cu  0.17223729  0.84785754  0.01974013     1.04300
C777        C  0.23054660  0.85887947  0.07014009     0.91900
C778        C  0.16097832  0.78956050  0.46950261     0.91000
C779        C  0.22794522  0.85584701  0.46548264     0.83200
C780        C  0.16417312  0.79204725  0.07407883     0.89400
O781        O  0.35526759  0.72444243  0.48986345    -0.74300
O782        O  0.29527177  0.66528695  0.05011055    -0.75300
O783        O  0.34355757  0.71477084  0.06484286    -0.63900
O784        O  0.30568324  0.67623718  0.47477650    -0.72300
O785        O  0.33638491  0.62543929  0.48237588    -0.71900
O786        O  0.39422234  0.68382648  0.05718266    -0.63100
O787        O  0.34094062  0.62925389  0.06221710    -0.75600
O788        O  0.39109327  0.67871174  0.47744138    -0.74400
Cu789      Cu  0.32367700  0.69661085  0.01979812     1.04600
Cu790      Cu  0.36774236  0.65235953  0.01972216     1.04300
C791        C  0.37902418  0.71030865  0.46966829     0.91900
C792        C  0.30944191  0.64142957  0.07018219     0.91000
C793        C  0.37583673  0.70825150  0.07395744     0.83200
C794        C  0.31204761  0.64395007  0.46559009     0.89400
O795        O  0.39425659  0.96227940  0.20335183    -0.74300
O796        O  0.33660387  0.53769856  0.14510594    -0.75300
O797        O  0.39147780  0.54261338  0.19837443    -0.63900
O798        O  0.34094538  0.95748307  0.14861078    -0.72300
O799        O  0.29546109  0.96936935  0.18495291    -0.71900
O800        O  0.35542877  0.53046796  0.24399165    -0.63100
O801        O  0.30574173  0.54509272  0.19581654    -0.75600
O802        O  0.34370309  0.95507865  0.23454742    -0.74400
Cu803      Cu  0.36791469  0.99990022  0.17183960     1.04600
Cu804      Cu  0.32375269  0.99994172  0.21608250     1.04300
C805        C  0.37588780  0.94572276  0.22794467     0.91900
C806        C  0.31215804  0.55438375  0.16357484     0.91000
C807        C  0.37933431  0.55049649  0.22993091     0.83200
C808        C  0.30947233  0.94948829  0.16086561     0.89400
O809        O  0.05072281  0.77619209  0.18492606    -0.74300
O810        O  0.48926591  0.83489235  0.24399169    -0.75300
O811        O  0.47511897  0.78558422  0.19548318    -0.63900
O812        O  0.06401909  0.82456489  0.23448767    -0.72300
O813        O  0.05735387  0.87483342  0.20279077    -0.71900
O814        O  0.48233619  0.81684259  0.14497401    -0.63100
O815        O  0.47737497  0.87138573  0.19862707    -0.75600
O816        O  0.06193167  0.82131813  0.14793311    -0.74400
Cu817      Cu  0.01965290  0.80408748  0.21566846     1.04600
Cu818      Cu  0.01957605  0.84840555  0.17138869     1.04300
C819        C  0.07019933  0.78999276  0.16045417     0.91900
C820        C  0.46940063  0.85902561  0.23008460     0.91000
C821        C  0.46585991  0.79215735  0.16328486     0.83200
C822        C  0.07362766  0.85661601  0.22769599     0.89400
O823        O  0.48934071  0.72447441  0.18464031    -0.74300
O824        O  0.05092078  0.66542239  0.24377960    -0.75300
O825        O  0.06417805  0.71494235  0.19533921    -0.63900
O826        O  0.47528113  0.67635990  0.23445565    -0.72300
O827        O  0.48231759  0.62583660  0.20317127    -0.71900
O828        O  0.05763500  0.68320079  0.14507214    -0.63100
O829        O  0.06233290  0.62842269  0.19871065    -0.75600
O830        O  0.47760183  0.67901458  0.14821662    -0.74400
Cu831      Cu  0.01982525  0.69601771  0.21569579     1.04600
Cu832      Cu  0.01994279  0.65168959  0.17144924     1.04300
C833        C  0.46959909  0.71049758  0.16045882     0.91900
C834        C  0.07048806  0.64096741  0.23006303     0.91000
C835        C  0.07379636  0.70817514  0.16328631     0.83200
C836        C  0.46587051  0.64419130  0.22784491     0.89400
O837        O  0.20346221  0.96262776  0.14506685    -0.74300
O838        O  0.14580277  0.53796637  0.20342032    -0.75300
O839        O  0.19907699  0.54285406  0.14869944    -0.63900
O840        O  0.14864583  0.95768940  0.19837278    -0.72300
O841        O  0.18464126  0.96984356  0.24403737    -0.71900
O842        O  0.24456761  0.53089977  0.18500717    -0.63100
O843        O  0.19635664  0.54511258  0.23463908    -0.75600
O844        O  0.23428806  0.95517510  0.19579425    -0.74400
Cu845      Cu  0.17208898  0.50039752  0.17188640     1.04600
Cu846      Cu  0.21595420  0.00014338  0.21572878     1.04300
C847        C  0.22788405  0.94591609  0.16353892     0.91900
C848        C  0.16417753  0.55448281  0.22802604     0.91000
C849        C  0.23055029  0.55083564  0.16096338     0.83200
C850        C  0.16075095  0.94981155  0.22994353     0.89400
O851        O  0.14591856  0.68366118  0.48229438    -0.74300
O852        O  0.20378346  0.62595591  0.05758922    -0.75300
O853        O  0.14889870  0.67892759  0.06254826    -0.63900
O854        O  0.19901480  0.62884502  0.47737920    -0.72300
O855        O  0.24471008  0.66480537  0.48954756    -0.71900
O856        O  0.18449758  0.72476160  0.04991057    -0.63100
O857        O  0.23434392  0.67685465  0.06513942    -0.75600
O858        O  0.19661392  0.71456577  0.47477588    -0.74400
Cu859      Cu  0.17206069  0.65214999  0.02008090     1.04600
Cu860      Cu  0.21607502  0.69635306  0.01991107     1.04300
C861        C  0.16434636  0.70807838  0.46555333     0.91900
C862        C  0.22804815  0.64455806  0.07436416     0.91000
C863        C  0.16084937  0.71058314  0.07019872     0.83200
C864        C  0.23055747  0.64094856  0.46948094     0.89400
C865        C  0.43705470  0.76935197  0.89136119     0.00900
C866        C  0.43583307  0.72986525  0.89112660     0.00900
C867        C  0.40637270  0.71141097  0.90721142     0.00900
C868        C  0.39115909  0.73094402  0.93682020     0.00900
C869        C  0.39107102  0.77041229  0.93573560     0.00900
C870        C  0.40743351  0.78890342  0.90648230     0.00900
C871        C  0.39189789  0.67434229  0.89243912     0.78800
N872        N  0.36107556  0.65855628  0.90654748    -0.79500
C873        C  0.34562566  0.62775877  0.89178550     0.81300
N874        N  0.36145426  0.61358965  0.86100373    -0.79400
C875        C  0.39235752  0.62822797  0.84565779     0.81400
N876        N  0.40659631  0.65895378  0.86156760    -0.81100
C877        C  0.28997809  0.62949744  0.93550944     0.00900
C878        C  0.30848756  0.61313945  0.90619388     0.00900
C879        C  0.28904212  0.58334972  0.89113628     0.00900
C880        C  0.24953782  0.58426506  0.89109919     0.00900
C881        C  0.23095772  0.61360980  0.90731084     0.00900
C882        C  0.25051878  0.62904182  0.93682391     0.00900
C883        C  0.14873505  0.76914043  0.93690747     0.00900
C884        C  0.13334665  0.78866021  0.90737378     0.00900
C885        C  0.10380135  0.77014635  0.89141600     0.00900
C886        C  0.10272667  0.73060769  0.89159838     0.00900
C887        C  0.13246307  0.71112200  0.90658352     0.00900
C888        C  0.14891107  0.72966451  0.93579666     0.00900
C889        C  0.14702917  0.67397256  0.89214720     0.78800
N890        N  0.13283555  0.65810979  0.86137099    -0.79500
C891        C  0.14757518  0.62726214  0.84596975     0.81300
N892        N  0.17838170  0.61313559  0.86181741    -0.79400
C893        C  0.19377136  0.62787345  0.89266879     0.81400
N894        N  0.17789811  0.65861641  0.90682357    -0.81100
C895        C  0.29031943  0.91574433  0.89095717     0.00900
C896        C  0.30888573  0.88639440  0.90716382     0.00900
C897        C  0.28936279  0.87104657  0.93670962     0.00900
C898        C  0.24990177  0.87060691  0.93545648     0.00900
C899        C  0.23134700  0.88693551  0.90615474     0.00900
C900        C  0.25081028  0.91670678  0.89105699     0.00900
C901        C  0.14733139  0.87187834  0.84578428     0.78800
N902        N  0.13307519  0.84116095  0.86171786    -0.79500
C903        C  0.14781648  0.82574788  0.89256128     0.81300
N904        N  0.17869437  0.84152215  0.90661283    -0.79400
C905        C  0.19414831  0.87231927  0.89183219     0.81400
N906        N  0.17827149  0.88649584  0.86108515    -0.81100
C907        C  0.29011015  0.87076451  0.60420001     0.00900
C908        C  0.30864398  0.88704339  0.63354340     0.00900
C909        C  0.28921713  0.91676809  0.64868198     0.00900
C910        C  0.24971429  0.91579791  0.64883113     0.00900
C911        C  0.23113066  0.88646226  0.63259618     0.00900
C912        C  0.25063512  0.87116051  0.60298001     0.00900
C913        C  0.14894205  0.91570586  0.79011350     0.00900
C914        C  0.13267122  0.88635264  0.80865764     0.00900
C915        C  0.10293718  0.87127733  0.78921996     0.00900
C916        C  0.10393244  0.87115089  0.74968150     0.00900
C917        C  0.13333843  0.88732308  0.73110669     0.00900
C918        C  0.14864398  0.91691044  0.75060803     0.00900
C919        C  0.19399026  0.87209782  0.64728341     0.78800
N920        N  0.17816919  0.84131792  0.63312903    -0.79500
C921        C  0.14731193  0.82592083  0.64780592     0.81300
N922        N  0.13309128  0.84177018  0.67857039    -0.79400
C923        C  0.14777542  0.87263935  0.69396945     0.81400
N924        N  0.17857010  0.88681283  0.67813036    -0.81100
C925        C  0.14916819  0.77024352  0.60410099     0.00900
C926        C  0.13273086  0.78877754  0.63334877     0.00900
C927        C  0.10295600  0.76931279  0.64833878     0.00900
C928        C  0.10398903  0.72977191  0.64848108     0.00900
C929        C  0.13349738  0.71122562  0.63246884     0.00900
C930        C  0.14892918  0.73075949  0.60293971     0.00900
C931        C  0.28926903  0.62857015  0.60296127     0.00900
C932        C  0.30874882  0.61330503  0.63258918     0.00900
C933        C  0.29017873  0.58396244  0.64881634     0.00900
C934        C  0.25066994  0.58296464  0.64862641     0.00900
C935        C  0.23121686  0.61269099  0.63347630     0.00900
C936        C  0.24978848  0.62895929  0.60414463     0.00900
C937        C  0.14788590  0.67408607  0.64724833     0.78800
N938        N  0.17867334  0.65821140  0.63312353    -0.79500
C939        C  0.19407265  0.62737516  0.64787256     0.81300
N940        N  0.17822032  0.61323901  0.67866800    -0.79400
C941        C  0.14735466  0.62795050  0.69404291     0.81400
N942        N  0.13316631  0.65871833  0.67813483    -0.81100
C943        C  0.14854102  0.58298115  0.78929917     0.00900
C944        C  0.13322095  0.61258227  0.80879053     0.00900
C945        C  0.10385684  0.62876403  0.79018652     0.00900
C946        C  0.10294654  0.62863408  0.75064151     0.00900
C947        C  0.13268851  0.61351908  0.73121218     0.00900
C948        C  0.14890505  0.58414088  0.74977949     0.00900
C949        C  0.43679580  0.73056609  0.64854989     0.00900
C950        C  0.43566414  0.77005935  0.64875379     0.00900
C951        C  0.40625449  0.78857077  0.63261328     0.00900
C952        C  0.39096829  0.76905359  0.60300522     0.00900
C953        C  0.39076443  0.72957767  0.60415449     0.00900
C954        C  0.40711216  0.71106085  0.63343813     0.00900
C955        C  0.39128528  0.58298618  0.75053645     0.00900
C956        C  0.39089477  0.58431450  0.79003069     0.00900
C957        C  0.40704073  0.61375916  0.80854127     0.00900
C958        C  0.43674051  0.62888597  0.78910379     0.00900
C959        C  0.43575612  0.62897300  0.74961065     0.00900
C960        C  0.40649927  0.61259280  0.73103032     0.00900
C961        C  0.39251528  0.67391703  0.64781595     0.78800
N962        N  0.36166532  0.65851207  0.63312480    -0.79500
C963        C  0.34587141  0.62770311  0.64726050     0.81300
N964        N  0.36129946  0.61298671  0.67808965    -0.79400
C965        C  0.39207132  0.62719287  0.69391829     0.81400
N966        N  0.40672773  0.65806962  0.67855363    -0.81100
C967        C  0.43588578  0.87090462  0.79025405     0.00900
C968        C  0.40669684  0.88731825  0.80887230     0.00900
C969        C  0.39148897  0.91695208  0.78940227     0.00900
C970        C  0.39101253  0.91566462  0.74989722     0.00900
C971        C  0.40707827  0.88618690  0.73135379     0.00900
C972        C  0.43678193  0.87101023  0.75076202     0.00900
C973        C  0.39187211  0.82567122  0.64738536     0.78800
N974        N  0.36112818  0.84155191  0.63322840    -0.79500
C975        C  0.34573412  0.87236947  0.64798654     0.81300
N976        N  0.36154224  0.88648968  0.67881220    -0.79400
C977        C  0.39238294  0.87176282  0.69420615     0.81400
N978        N  0.40655635  0.84099988  0.67830073    -0.81100
C979        C  0.34608131  0.87211542  0.89258858     0.78800
N980        N  0.36150803  0.88685851  0.86178084    -0.79500
C981        C  0.39233029  0.87272660  0.84599729     0.81300
N982        N  0.40705431  0.84189370  0.86138627    -0.79400
C983        C  0.39284037  0.82602942  0.89210895     0.81400
N984        N  0.36193678  0.84136026  0.90675311    -0.81100
O985        O  0.05746986  0.81679609  0.89471102    -0.74300
O986        O  0.48255289  0.87428593  0.83645397    -0.75300
O987        O  0.47770728  0.82111480  0.89131101    -0.63900
O988        O  0.06222191  0.87147229  0.84106498    -0.72300
O989        O  0.05070129  0.83466254  0.79586652    -0.71900
O990        O  0.48962943  0.77549958  0.85514599    -0.63100
O991        O  0.47519773  0.82365865  0.80541487    -0.75600
O992        O  0.06431748  0.78523514  0.84436350    -0.74400
Cu993      Cu  0.01980190  0.84823998  0.86822429     1.04600
Cu994      Cu  0.01979840  0.80391216  0.82403921     1.04300
C995        C  0.07380375  0.79195086  0.87647177     0.91900
C996        C  0.46592311  0.85589095  0.81193294     0.91000
C997        C  0.46973749  0.78960269  0.87914794     0.83200
C998        C  0.07036008  0.85899764  0.80968790     0.89400
O999        O  0.39423587  0.53789311  0.83643023    -0.74300
O1000       O  0.33648235  0.96251714  0.89453589    -0.75300
O1001       O  0.39141838  0.95755263  0.84133580    -0.63900
O1002       O  0.34090229  0.54275461  0.89113624    -0.72300
O1003       O  0.29545825  0.53080439  0.85477606    -0.71900
O1004       O  0.35544442  0.96970280  0.79565808    -0.63100
O1005       O  0.30564695  0.95510371  0.84380301    -0.75600
O1006       O  0.34369041  0.54509779  0.80521077    -0.74400
Cu1007     Cu  0.36810582  0.00009064  0.86815379     1.04600
Cu1008     Cu  0.32405598  0.00004227  0.82389023     1.04300
C1009       C  0.37587491  0.55442737  0.81181836     0.91900
C1010       C  0.31205404  0.94582664  0.87605471     0.91000
C1011       C  0.37933741  0.94967332  0.80975391     0.83200
C1012       C  0.30943159  0.55072176  0.87885677     0.89400
O1013       O  0.33623629  0.87411053  0.55746750    -0.74300
O1014       O  0.39446773  0.81657006  0.98240593    -0.75300
O1015       O  0.34115494  0.87118437  0.97731563    -0.63900
O1016       O  0.39089884  0.82084081  0.56237803    -0.72300
O1017       O  0.35491889  0.77515886  0.55018396    -0.71900
O1018       O  0.29545356  0.83532372  0.98973428    -0.63100
O1019       O  0.34369643  0.78585172  0.97464194    -0.75600
O1020       O  0.30534308  0.82341699  0.56501228    -0.74400
Cu1021     Cu  0.36774311  0.84771748  0.51991185     1.04600
Cu1022     Cu  0.32357250  0.80357708  0.51989765     1.04300
C1023       C  0.31184041  0.85567828  0.57423586     0.91900
C1024       C  0.37602164  0.79219546  0.96561289     0.91000
C1025       C  0.30959702  0.85905447  0.96951749     0.83200
C1026       C  0.37877863  0.78929727  0.57026298     0.89400
O1027       O  0.20338163  0.53746738  0.89456632    -0.74300
O1028       O  0.14560564  0.96223868  0.83645432    -0.75300
O1029       O  0.19899177  0.95735856  0.89111915    -0.63900
O1030       O  0.14861801  0.54237224  0.84118649    -0.72300
O1031       O  0.18474481  0.53034753  0.79558477    -0.71900
O1032       O  0.24448595  0.96934332  0.85482697    -0.63100
O1033       O  0.19617583  0.95495499  0.80531257    -0.75600
O1034       O  0.23430165  0.54492500  0.84390039    -0.74400
Cu1035     Cu  0.17186814  0.49987173  0.86807452     1.04600
Cu1036     Cu  0.21600586  0.49997744  0.82388704     1.04300
C1037       C  0.22783469  0.55418163  0.87614456     0.91900
C1038       C  0.16397279  0.94564788  0.81188171     0.91000
C1039       C  0.23046752  0.94938683  0.87884869     0.83200
C1040       C  0.16076902  0.55030580  0.80964748     0.89400
O1041       O  0.48225385  0.68344231  0.89450964    -0.74300
O1042       O  0.05741033  0.62540878  0.83674295    -0.75300
O1043       O  0.06204890  0.67877043  0.89168531    -0.63900
O1044       O  0.47723875  0.62882694  0.84102406    -0.72300
O1045       O  0.48935561  0.66507791  0.79552895    -0.71900
O1046       O  0.05051079  0.72406948  0.85500853    -0.63100
O1047       O  0.06423885  0.67581226  0.80527516    -0.75600
O1048       O  0.47492520  0.71452162  0.84389576    -0.74400
Cu1049     Cu  0.01969266  0.65174786  0.86827889     1.04600
Cu1050     Cu  0.01968138  0.69606183  0.82406779     1.04300
C1051       C  0.46570174  0.70803229  0.87613214     0.91900
C1052       C  0.07376364  0.64369569  0.81194137     0.91000
C1053       C  0.07015578  0.71018556  0.87931053     0.83200
C1054       C  0.46936830  0.64107717  0.80950950     0.89400
O1055       O  0.24456107  0.83536684  0.54996094    -0.74300
O1056       O  0.18485256  0.77527129  0.98967232    -0.75300
O1057       O  0.23463732  0.82331012  0.97470686    -0.63900
O1058       O  0.19649576  0.78563005  0.56498030    -0.72300
O1059       O  0.14570641  0.81634503  0.55734338    -0.71900
O1060       O  0.20383989  0.87408642  0.98219101    -0.63100
O1061       O  0.14901585  0.82103159  0.97735081    -0.75600
O1062       O  0.19880671  0.87115330  0.56236145    -0.74400
Cu1063     Cu  0.21616991  0.80385356  0.51982917     1.04600
Cu1064     Cu  0.17205159  0.84796848  0.51982326     1.04300
C1065       C  0.23038704  0.85908985  0.57017563     0.91900
C1066       C  0.16102574  0.78942573  0.96956906     0.91000
C1067       C  0.22818801  0.85557564  0.96544176     0.83200
C1068       C  0.16419971  0.79200298  0.57414022     0.89400
O1069       O  0.35513732  0.72489767  0.98959454    -0.74300
O1070       O  0.29544061  0.66442400  0.55002531    -0.75300
O1071       O  0.34347526  0.71416717  0.56506087    -0.63900
O1072       O  0.30532652  0.67687518  0.97465987    -0.72300
O1073       O  0.33609864  0.62609548  0.98221379    -0.71900
O1074       O  0.39427111  0.68344226  0.55745926    -0.63100
O1075       O  0.34116735  0.62860011  0.56242740    -0.75600
O1076       O  0.39095022  0.67910537  0.97729300    -0.74400
Cu1077     Cu  0.32382961  0.69594432  0.51993648     1.04600
Cu1078     Cu  0.36795574  0.65182622  0.51992978     1.04300
C1079       C  0.37893550  0.71070347  0.96949573     0.91900
C1080       C  0.30957465  0.64066180  0.57020987     0.91000
C1081       C  0.37576986  0.70780535  0.57421514     0.83200
C1082       C  0.31174480  0.64458662  0.96544694     0.89400
O1083       O  0.39436929  0.96212387  0.70350033    -0.74300
O1084       O  0.33641723  0.53726373  0.64538833    -0.75300
O1085       O  0.39124511  0.54226745  0.69869284    -0.63900
O1086       O  0.34110981  0.95732372  0.64868512    -0.72300
O1087       O  0.29566842  0.96923750  0.68506085    -0.71900
O1088       O  0.35516558  0.53022572  0.74431876    -0.63100
O1089       O  0.30543727  0.54463448  0.69604087    -0.75600
O1090       O  0.34383438  0.95501222  0.73475297    -0.74400
Cu1091     Cu  0.36806399  0.99974384  0.67194487     1.04600
Cu1092     Cu  0.32387322  0.99983203  0.71617478     1.04300
C1093       C  0.37600635  0.94561585  0.72813018     0.91900
C1094       C  0.31191515  0.55391771  0.66380158     0.91000
C1095       C  0.37910266  0.55022312  0.73023243     0.83200
C1096       C  0.30963285  0.94936173  0.66095897     0.89400
O1097       O  0.05068124  0.77586071  0.68493636    -0.74300
O1098       O  0.48937661  0.83486825  0.74431199    -0.75300
O1099       O  0.47484709  0.78537818  0.69599827    -0.63900
O1100       O  0.06434314  0.82412892  0.73461856    -0.72300
O1101       O  0.05750290  0.87452759  0.70314100    -0.71900
O1102       O  0.48216875  0.81643323  0.64537767    -0.63100
O1103       O  0.47718297  0.87108309  0.69880784    -0.75600
O1104       O  0.06221258  0.82114610  0.64825348    -0.74400
Cu1105     Cu  0.01978346  0.80390103  0.71586829     1.04600
Cu1106     Cu  0.01978948  0.84817725  0.67163653     1.04300
C1107       C  0.07035457  0.78974343  0.66064327     0.91900
C1108       C  0.46936481  0.85884114  0.73033152     0.91000
C1109       C  0.46559562  0.79185962  0.66375900     0.83200
C1110       C  0.07386938  0.85623294  0.72792538     0.89400
O1111       O  0.48942072  0.72438354  0.68474458    -0.74300
O1112       O  0.05074293  0.66524276  0.74399970    -0.75300
O1113       O  0.06447206  0.71468927  0.69554957    -0.63900
O1114       O  0.47500714  0.67622040  0.73443778    -0.72300
O1115       O  0.48244069  0.62558570  0.70342977    -0.71900
O1116       O  0.05757754  0.68318529  0.64517875    -0.63100
O1117       O  0.06230601  0.62847847  0.69877261    -0.75600
O1118       O  0.47747388  0.67877069  0.64860376    -0.74400
Cu1119     Cu  0.01989537  0.69603243  0.71585302     1.04600
Cu1120     Cu  0.01989660  0.65172808  0.67166435     1.04300
C1121       C  0.46948915  0.71028073  0.66076918     0.91900
C1122       C  0.07041005  0.64092589  0.73016359     0.91000
C1123       C  0.07395504  0.70799073  0.66343210     0.83200
C1124       C  0.46576330  0.64398503  0.72791746     0.89400
O1125       O  0.20348412  0.96249341  0.64539399    -0.74300
O1126       O  0.14555000  0.53754511  0.70344948    -0.75300
O1127       O  0.19880564  0.54238149  0.64862293    -0.63900
O1128       O  0.14872409  0.95760223  0.69876668    -0.72300
O1129       O  0.18492575  0.96954011  0.74432867    -0.71900
O1130       O  0.24433506  0.53038629  0.68486317    -0.63100
O1131       O  0.19613638  0.54478932  0.73456987    -0.75600
O1132       O  0.23453257  0.95519564  0.69600795    -0.74400
Cu1133     Cu  0.17189905  0.49993163  0.67186676     1.04600
Cu1134     Cu  0.21611383  0.00006661  0.71605237     1.04300
C1135       C  0.22800728  0.94586505  0.66379560     0.91900
C1136       C  0.16392974  0.55413678  0.72801821     0.91000
C1137       C  0.23030489  0.55032387  0.66084785     0.83200
C1138       C  0.16091035  0.94961178  0.73027876     0.89400
O1139       O  0.14555811  0.68362959  0.98259369    -0.74300
O1140       O  0.20368772  0.62564868  0.55739431    -0.75300
O1141       O  0.14906201  0.67897452  0.56229932    -0.63900
O1142       O  0.19881394  0.62900460  0.97755650    -0.72300
O1143       O  0.24454974  0.66485883  0.98984802    -0.71900
O1144       O  0.18510427  0.72462729  0.55018869    -0.63100
O1145       O  0.23462633  0.67631165  0.56495088    -0.75600
O1146       O  0.19632075  0.71433597  0.97474424    -0.74400
Cu1147     Cu  0.17222369  0.65208910  0.51983962     1.04600
Cu1148     Cu  0.21641526  0.69621560  0.51986335     1.04300
C1149       C  0.16400135  0.70794290  0.96571152     0.91900
C1150       C  0.22809549  0.64405629  0.57416857     0.91000
C1151       C  0.16119334  0.71050612  0.57022016     0.83200
C1152       C  0.23035510  0.64111015  0.96967040     0.89400
C1153       C  0.93678492  0.26962286  0.39121030     0.00900
C1154       C  0.93565028  0.23011328  0.39092827     0.00900
C1155       C  0.90622638  0.21160367  0.40708510     0.00900
C1156       C  0.89101151  0.23109114  0.43675491     0.00900
C1157       C  0.89087547  0.27058010  0.43570029     0.00900
C1158       C  0.90715618  0.28912717  0.40639606     0.00900
C1159       C  0.89172286  0.17453798  0.39229634     0.78800
N1160       N  0.86087846  0.15877361  0.40640979    -0.79500
C1161       C  0.84540610  0.12797730  0.39165969     0.81300
N1162       N  0.86123707  0.11379281  0.36088046    -0.79400
C1163       C  0.89215450  0.12840130  0.34552054     0.81400
N1164       N  0.90641945  0.15912592  0.36142585    -0.81100
C1165       C  0.78970877  0.12962617  0.43541926     0.00900
C1166       C  0.80825544  0.11333717  0.40608231     0.00900
C1167       C  0.78887009  0.08350024  0.39106605     0.00900
C1168       C  0.74936216  0.08435354  0.39097152     0.00900
C1169       C  0.73073279  0.11362394  0.40726307     0.00900
C1170       C  0.75024580  0.12907740  0.43679079     0.00900
C1171       C  0.64838707  0.26915491  0.43684316     0.00900
C1172       C  0.63323687  0.28861236  0.40714893     0.00900
C1173       C  0.60385076  0.27009820  0.39098255     0.00900
C1174       C  0.60268284  0.23061518  0.39127434     0.00900
C1175       C  0.63228931  0.21111984  0.40645505     0.00900
C1176       C  0.64855478  0.22966851  0.43577563     0.00900
C1177       C  0.64690523  0.17401019  0.39201876     0.78800
N1178       N  0.63283198  0.15824228  0.36114753    -0.79500
C1179       C  0.64759289  0.12742648  0.34571914     0.81300
N1180       N  0.67832939  0.11324461  0.36162716    -0.79400
C1181       C  0.69360590  0.12790215  0.39257289     0.81400
N1182       N  0.67770040  0.15860618  0.40677211    -0.81100
C1183       C  0.78988022  0.41587777  0.39100051     0.00900
C1184       C  0.80853592  0.38658009  0.40724158     0.00900
C1185       C  0.78902888  0.37116101  0.43680115     0.00900
C1186       C  0.74955820  0.37067295  0.43552387     0.00900
C1187       C  0.73100833  0.38698066  0.40621000     0.00900
C1188       C  0.75037171  0.41679623  0.39116350     0.00900
C1189       C  0.64725369  0.37176058  0.34556986     0.78800
N1190       N  0.63303642  0.34102263  0.36146629    -0.79500
C1191       C  0.64770865  0.32566480  0.39236378     0.81300
N1192       N  0.67849667  0.34148614  0.40651027    -0.79400
C1193       C  0.69392119  0.37229551  0.39175982     0.81400
N1194       N  0.67811804  0.38644127  0.36095205    -0.81100
C1195       C  0.78976388  0.37047836  0.10404063     0.00900
C1196       C  0.80832507  0.38695369  0.13323138     0.00900
C1197       C  0.78888615  0.41680539  0.14815325     0.00900
C1198       C  0.74937149  0.41582868  0.14832454     0.00900
C1199       C  0.73080113  0.38641028  0.13224151     0.00900
C1200       C  0.75031585  0.37090662  0.10276790     0.00900
C1201       C  0.64873938  0.41564970  0.28992502     0.00900
C1202       C  0.63259088  0.38620729  0.30844280     0.00900
C1203       C  0.60293790  0.37101681  0.28897376     0.00900
C1204       C  0.60399175  0.37089811  0.24948687     0.00900
C1205       C  0.63326920  0.38723104  0.23091772     0.00900
C1206       C  0.64846015  0.41685654  0.25041988     0.00900
C1207       C  0.69367737  0.37211502  0.14696028     0.78800
N1208       N  0.67780732  0.34135534  0.13283058    -0.79500
C1209       C  0.64698578  0.32598464  0.14758391     0.81300
N1210       N  0.63287139  0.34181616  0.17837475    -0.79400
C1211       C  0.64759954  0.37265949  0.19373893     0.81400
N1212       N  0.67834920  0.38683454  0.17784212    -0.81100
C1213       C  0.64860118  0.27033171  0.10392171     0.00900
C1214       C  0.63236214  0.28886005  0.13323860     0.00900
C1215       C  0.60275896  0.26936379  0.14844395     0.00900
C1216       C  0.60391602  0.22988863  0.14867441     0.00900
C1217       C  0.63325354  0.21137363  0.13243323     0.00900
C1218       C  0.64840048  0.23087089  0.10278159     0.00900
C1219       C  0.78898878  0.12909759  0.10281180     0.00900
C1220       C  0.80850472  0.11359699  0.13227974     0.00900
C1221       C  0.78990827  0.08413960  0.14827682     0.00900
C1222       C  0.75038723  0.08314737  0.14809436     0.00900
C1223       C  0.73097800  0.11300900  0.13320025     0.00900
C1224       C  0.74953978  0.12952085  0.10404143     0.00900
C1225       C  0.64767395  0.17426967  0.14709640     0.78800
N1226       N  0.67844805  0.15845157  0.13293300    -0.79500
C1227       C  0.69385399  0.12760635  0.14762664     0.81300
N1228       N  0.67803425  0.11341737  0.17840316    -0.79400
C1229       C  0.64718240  0.12811584  0.19380180     0.81400
N1230       N  0.63299191  0.15888059  0.17795902    -0.81100
C1231       C  0.64849403  0.08320405  0.28894320     0.00900
C1232       C  0.63330190  0.11285802  0.30848432     0.00900
C1233       C  0.60399405  0.12916962  0.28993853     0.00900
C1234       C  0.60293182  0.12895886  0.25044522     0.00900
C1235       C  0.63254193  0.11372195  0.23094029     0.00900
C1236       C  0.64869015  0.08430169  0.24942756     0.00900
C1237       C  0.93673700  0.23060140  0.14842916     0.00900
C1238       C  0.93558793  0.27010289  0.14865458     0.00900
C1239       C  0.90619410  0.28860597  0.13243889     0.00900
C1240       C  0.89098392  0.26907173  0.10281863     0.00900
C1241       C  0.89082587  0.22960682  0.10394255     0.00900
C1242       C  0.90711189  0.21108630  0.13323421     0.00900
C1243       C  0.89085234  0.08317915  0.25039120     0.00900
C1244       C  0.89054909  0.08448753  0.28988825     0.00900
C1245       C  0.90681570  0.11388450  0.30839235     0.00900
C1246       C  0.93656555  0.12891716  0.28892421     0.00900
C1247       C  0.93557783  0.12892179  0.24941038     0.00900
C1248       C  0.90621392  0.11267831  0.23085201     0.00900
C1249       C  0.89246562  0.17394823  0.14756302     0.78800
N1250       N  0.86159161  0.15861473  0.13284613    -0.79500
C1251       C  0.84568944  0.12786138  0.14697657     0.81300
N1252       N  0.86105419  0.11311996  0.17783228    -0.79400
C1253       C  0.89185790  0.12725725  0.19368876     0.81400
N1254       N  0.90661124  0.15808008  0.17831614    -0.81100
C1255       C  0.93552192  0.37122218  0.28997584     0.00900
C1256       C  0.90611226  0.38743242  0.30850135     0.00900
C1257       C  0.89074572  0.41695326  0.28890920     0.00900
C1258       C  0.89054908  0.41575924  0.24940428     0.00900
C1259       C  0.90682091  0.38638355  0.23093960     0.00900
C1260       C  0.93652119  0.37130472  0.25045437     0.00900
C1261       C  0.89174050  0.32572844  0.14710551     0.78800
N1262       N  0.86092913  0.34151748  0.13295129    -0.79500
C1263       C  0.84549074  0.37236181  0.14763968     0.81300
N1264       N  0.86132308  0.38657316  0.17839764    -0.79400
C1265       C  0.89220374  0.37192160  0.19379570     0.81400
N1266       N  0.90642981  0.34115975  0.17795373    -0.81100
C1267       C  0.84571970  0.37232307  0.39254749     0.78800
N1268       N  0.86101829  0.38700202  0.36161801    -0.79500
C1269       C  0.89180181  0.37285986  0.34572853     0.81300
N1270       N  0.90659269  0.34206299  0.36115752    -0.79400
C1271       C  0.89250586  0.32625547  0.39199478     0.81400
N1272       N  0.86166535  0.34162208  0.40673712    -0.81100
O1273       O  0.55737775  0.31646729  0.39430236    -0.74300
O1274       O  0.98217852  0.37469815  0.33631074    -0.75300
O1275       O  0.97737280  0.32147132  0.39121339    -0.63900
O1276       O  0.56234485  0.37106000  0.34082252    -0.72300
O1277       O  0.55032012  0.33477525  0.29532893    -0.71900
O1278       O  0.98931637  0.27591733  0.35499296    -0.63100
O1279       O  0.97498780  0.32408600  0.30524638    -0.75600
O1280       O  0.56468783  0.28532850  0.34372458    -0.74400
Cu1281     Cu  0.51988172  0.34797827  0.36784681     1.04600
Cu1282     Cu  0.51983821  0.30370651  0.32373888     1.04300
C1283       C  0.57394467  0.29187487  0.37594744     0.91900
C1284       C  0.96560252  0.35628975  0.31174833     0.91000
C1285       C  0.96942140  0.28996364  0.37901070     0.83200
C1286       C  0.57027644  0.35879911  0.30932950     0.89400
O1287       O  0.89397513  0.03805445  0.33627980    -0.74300
O1288       O  0.83610682  0.46256822  0.39418967    -0.75300
O1289       O  0.89065840  0.45772539  0.34060985    -0.63900
O1290       O  0.84081185  0.04299070  0.39113562    -0.72300
O1291       O  0.79533004  0.03089630  0.35489392    -0.71900
O1292       O  0.85421410  0.46939865  0.29514199    -0.63100
O1293       O  0.80486761  0.45520292  0.34370166    -0.75600
O1294       O  0.84337945  0.04523430  0.30514523    -0.74400
Cu1295     Cu  0.86747410  0.50015260  0.36762036     1.04600
Cu1296     Cu  0.82319478  0.50004005  0.32347236     1.04300
C1297       C  0.87557107  0.05457891  0.31169064     0.91900
C1298       C  0.81151925  0.44592013  0.37590608     0.91000
C1299       C  0.87837842  0.44962259  0.30916569     0.83200
C1300       C  0.80931306  0.05088711  0.37888666     0.89400
O1301       O  0.83580621  0.37387654  0.05735586    -0.74300
O1302       O  0.89419064  0.31664928  0.48250929    -0.75300
O1303       O  0.84075790  0.37120208  0.47755184    -0.63900
O1304       O  0.89069586  0.32092191  0.06233329    -0.72300
O1305       O  0.85492986  0.27511307  0.05001675    -0.71900
O1306       O  0.79509945  0.33518687  0.48968963    -0.63100
O1307       O  0.84348893  0.28584830  0.47468716    -0.75600
O1308       O  0.80509182  0.32306964  0.06501696    -0.74400
Cu1309     Cu  0.86742859  0.34763482  0.01990589     1.04600
Cu1310     Cu  0.82335865  0.30341058  0.01988284     1.04300
C1311       C  0.81148537  0.35537740  0.07414627     0.91900
C1312       C  0.87579203  0.29229149  0.46564094     0.91000
C1313       C  0.80924148  0.35904367  0.46960880     0.83200
C1314       C  0.87872244  0.28931178  0.07012777     0.89400
O1315       O  0.70308527  0.03765924  0.39418243    -0.74300
O1316       O  0.64520346  0.46220163  0.33624652    -0.75300
O1317       O  0.69836690  0.45727617  0.39115083    -0.63900
O1318       O  0.64844259  0.04247258  0.34068002    -0.72300
O1319       O  0.68484596  0.03071065  0.29520645    -0.71900
O1320       O  0.74388627  0.46943070  0.35498806    -0.63100
O1321       O  0.69584305  0.45501304  0.30519208    -0.75600
O1322       O  0.73429472  0.04498163  0.34367636    -0.74400
Cu1323     Cu  0.67165951  0.00003678  0.36765672     1.04600
Cu1324     Cu  0.71589691  0.00012787  0.32347756     1.04300
C1325       C  0.72768575  0.05428664  0.37588727     0.91900
C1326       C  0.66364940  0.44564161  0.31170561     0.91000
C1327       C  0.72990045  0.44941315  0.37895803     0.83200
C1328       C  0.66073599  0.05053363  0.30923093     0.89400
O1329       O  0.98207516  0.18360809  0.39423339    -0.74300
O1330       O  0.55735280  0.12567589  0.33618575    -0.75300
O1331       O  0.56219227  0.17872551  0.39117507    -0.63900
O1332       O  0.97719935  0.12888094  0.34078699    -0.72300
O1333       O  0.98908623  0.16529644  0.29536823    -0.71900
O1334       O  0.55007188  0.22439095  0.35515315    -0.63100
O1335       O  0.56464841  0.17637934  0.30525724    -0.75600
O1336       O  0.97501008  0.21490056  0.34373141    -0.74400
Cu1337     Cu  0.51978693  0.15193596  0.36785776     1.04600
Cu1338     Cu  0.51973165  0.19626163  0.32380872     1.04300
C1339       C  0.96561486  0.20830430  0.37590987     0.91900
C1340       C  0.57396539  0.14413712  0.31169593     0.91000
C1341       C  0.57004693  0.21029038  0.37907718     0.83200
C1342       C  0.96920714  0.14118487  0.30932073     0.89400
O1343       O  0.74425299  0.33496367  0.04985104    -0.74300
O1344       O  0.68432830  0.27536966  0.48969997    -0.75300
O1345       O  0.73420177  0.32336833  0.47474670    -0.63900
O1346       O  0.69595126  0.28563023  0.06498355    -0.72300
O1347       O  0.64517565  0.31634358  0.05714926    -0.71900
O1348       O  0.70341791  0.37415354  0.48219906    -0.63100
O1349       O  0.64852476  0.32111632  0.47726439    -0.75600
O1350       O  0.69853740  0.37086356  0.06215673    -0.74400
Cu1351     Cu  0.71569761  0.30353960  0.01982530     1.04600
Cu1352     Cu  0.67169330  0.34777420  0.01968244     1.04300
C1353       C  0.73009716  0.35876222  0.06999682     0.91900
C1354       C  0.66055065  0.28949750  0.46953006     0.91000
C1355       C  0.72779754  0.35564158  0.46548766     0.83200
C1356       C  0.66363877  0.29203896  0.07401657     0.89400
O1357       O  0.85486882  0.22489600  0.48951696    -0.74300
O1358       O  0.79504430  0.16493266  0.04988569    -0.75300
O1359       O  0.84339748  0.21423243  0.06508012    -0.63900
O1360       O  0.80501915  0.17691758  0.47462106    -0.72300
O1361       O  0.83582314  0.12613921  0.48207490    -0.71900
O1362       O  0.89416938  0.18353687  0.05719411    -0.63100
O1363       O  0.84076328  0.12904527  0.06224389    -0.75600
O1364       O  0.89072082  0.17915421  0.47719617    -0.74400
Cu1365     Cu  0.82361142  0.19631517  0.01991444     1.04600
Cu1366     Cu  0.86759998  0.15207628  0.01976895     1.04300
C1367       C  0.87871447  0.21076571  0.46941434     0.91900
C1368       C  0.80920403  0.14116585  0.07005150     0.91000
C1369       C  0.87573497  0.20786442  0.07406305     0.83200
C1370       C  0.81145790  0.14465673  0.46535688     0.89400
O1371       O  0.89399127  0.46226300  0.20298755    -0.74300
O1372       O  0.83620790  0.03750398  0.14497752    -0.75300
O1373       O  0.89078702  0.04240658  0.19861323    -0.63900
O1374       O  0.84078654  0.45736939  0.14808108    -0.72300
O1375       O  0.79523184  0.46947560  0.18423856    -0.71900
O1376       O  0.85434242  0.03069513  0.24405849    -0.63100
O1377       O  0.80497732  0.04483903  0.19548003    -0.75600
O1378       O  0.84334328  0.45497380  0.23399417    -0.74400
Cu1379     Cu  0.86765884  0.49985261  0.17136291     1.04600
Cu1380     Cu  0.82348357  0.49986015  0.21553033     1.04300
C1381       C  0.87557504  0.44569248  0.22754842     0.91900
C1382       C  0.81160165  0.05411771  0.16328181     0.91000
C1383       C  0.87850999  0.05049028  0.23007516     0.83200
C1384       C  0.80926553  0.44947497  0.16028155     0.89400
O1385       O  0.55011302  0.27557142  0.18457534    -0.74300
O1386       O  0.98904605  0.33503695  0.24409968    -0.75300
O1387       O  0.97484809  0.28536813  0.19587830    -0.63900
O1388       O  0.56476008  0.32370081  0.23423182    -0.72300
O1389       O  0.55734679  0.37439542  0.20330713    -0.71900
O1390       O  0.98205056  0.31652742  0.14530580    -0.63100
O1391       O  0.97710225  0.37133369  0.19859850    -0.75600
O1392       O  0.56222173  0.32120827  0.14850557    -0.74400
Cu1393     Cu  0.51982811  0.30384142  0.21590118     1.04600
Cu1394     Cu  0.51981062  0.34805247  0.17175652     1.04300
C1395       C  0.57009855  0.28966360  0.16064063     0.91900
C1396       C  0.96914722  0.35908404  0.23008957     0.91000
C1397       C  0.96552863  0.29190446  0.16366724     0.83200
C1398       C  0.57400226  0.35594311  0.22776940     0.89400
O1399       O  0.98930683  0.22434052  0.18467489    -0.74300
O1400       O  0.55029375  0.16506720  0.24417888    -0.75300
O1401       O  0.56481575  0.21460573  0.19594325    -0.63900
O1402       O  0.97490597  0.17606528  0.23421146    -0.72300
O1403       O  0.98224029  0.12545943  0.20315591    -0.71900
O1404       O  0.55739512  0.18360661  0.14528891    -0.63100
O1405       O  0.56239923  0.12891714  0.19859679    -0.75600
O1406       O  0.97738903  0.17880282  0.14842001    -0.74400
Cu1407     Cu  0.51993670  0.19624779  0.21586688     1.04600
Cu1408     Cu  0.51993749  0.15204727  0.17171097     1.04300
C1409       C  0.96940743  0.21029446  0.16064419     0.91900
C1410       C  0.57028244  0.14111935  0.23011885     0.91000
C1411       C  0.57401579  0.20812379  0.16369176     0.83200
C1412       C  0.96561153  0.14385627  0.22768541     0.89400
O1413       O  0.70303691  0.46246499  0.14505923    -0.74300
O1414       O  0.64518707  0.03775940  0.20300716    -0.75300
O1415       O  0.69842523  0.04261565  0.14805684    -0.63900
O1416       O  0.64839140  0.45756874  0.19860907    -0.72300
O1417       O  0.68474528  0.46943154  0.24408634    -0.71900
O1418       O  0.74395140  0.03053367  0.18425421    -0.63100
O1419       O  0.69582467  0.04495270  0.23404494    -0.75600
O1420       O  0.73421770  0.45512371  0.19559005    -0.74400
Cu1421     Cu  0.67150353  0.00013419  0.17135345     1.04600
Cu1422     Cu  0.71582271  0.49996867  0.21573893     1.04300
C1423       C  0.72763992  0.44584793  0.16337072     0.91900
C1424       C  0.66361050  0.05429811  0.22758888     0.91000
C1425       C  0.72995558  0.05050373  0.16025536     0.83200
C1426       C  0.66066564  0.44955407  0.23008619     0.89400
O1427       O  0.64515300  0.18363357  0.48258747    -0.74300
O1428       O  0.70347082  0.12606848  0.05737427    -0.75300
O1429       O  0.64854971  0.17897672  0.06234699    -0.63900
O1430       O  0.69851829  0.12904905  0.47758692    -0.72300
O1431       O  0.74419482  0.16502098  0.48975444    -0.71900
O1432       O  0.68423758  0.22479602  0.04985842    -0.63100
O1433       O  0.73416995  0.17689835  0.06494827    -0.75600
O1434       O  0.69586798  0.21444308  0.47484395    -0.74400
Cu1435     Cu  0.67178309  0.15224027  0.01992006     1.04600
Cu1436     Cu  0.71582638  0.19647789  0.01979304     1.04300
C1437       C  0.66358529  0.20797813  0.46573962     0.91900
C1438       C  0.72780441  0.14459281  0.07412229     0.91000
C1439       C  0.66052760  0.21060463  0.07006345     0.83200
C1440       C  0.73004189  0.14119059  0.46963996     0.89400
C1441       C  0.93676892  0.26936536  0.89168941     0.00900
C1442       C  0.93580170  0.22981519  0.89155204     0.00900
C1443       C  0.90627865  0.21125103  0.90744874     0.00900
C1444       C  0.89088717  0.23071964  0.93696364     0.00900
C1445       C  0.89051442  0.27017174  0.93577057     0.00900
C1446       C  0.90695939  0.28875200  0.90659751     0.00900
C1447       C  0.89182797  0.17416909  0.89265447     0.78800
N1448       N  0.86098838  0.15839265  0.90675770    -0.79500
C1449       C  0.84552126  0.12759000  0.89201940     0.81300
N1450       N  0.86133716  0.11341297  0.86124857    -0.79400
C1451       C  0.89223568  0.12804587  0.84588925     0.81400
N1452       N  0.90651797  0.15876971  0.86178867    -0.81100
C1453       C  0.78982264  0.12947112  0.93561180     0.00900
C1454       C  0.80835750  0.11300552  0.90640875     0.00900
C1455       C  0.78891082  0.08316068  0.89147642     0.00900
C1456       C  0.74939148  0.08411662  0.89135341     0.00900
C1457       C  0.73083452  0.11355387  0.90742052     0.00900
C1458       C  0.75037711  0.12908147  0.93686378     0.00900
C1459       C  0.64839189  0.26912400  0.93683929     0.00900
C1460       C  0.63324090  0.28858567  0.90716747     0.00900
C1461       C  0.60389607  0.27005981  0.89098511     0.00900
C1462       C  0.60274327  0.23058550  0.89126684     0.00900
C1463       C  0.63236636  0.21110404  0.90645395     0.00900
C1464       C  0.64864207  0.22966619  0.93572134     0.00900
C1465       C  0.64697268  0.17395940  0.89215385     0.78800
N1466       N  0.63280585  0.15808936  0.86141348    -0.79500
C1467       C  0.64751922  0.12723703  0.84606680     0.81300
N1468       N  0.67829739  0.11307499  0.86191856    -0.79400
C1469       C  0.69367870  0.12783094  0.89275421     0.81400
N1470       N  0.67782609  0.15860984  0.90686744    -0.81100
C1471       C  0.78991211  0.41566476  0.89126390     0.00900
C1472       C  0.80846092  0.38620444  0.90730245     0.00900
C1473       C  0.78890825  0.37069607  0.93676424     0.00900
C1474       C  0.74946598  0.37034414  0.93550792     0.00900
C1475       C  0.73095978  0.38684883  0.90631376     0.00900
C1476       C  0.75040098  0.41667239  0.89139696     0.00900
C1477       C  0.64714236  0.37185338  0.84575505     0.78800
N1478       N  0.63294385  0.34108193  0.86159747    -0.79500
C1479       C  0.64764290  0.32567206  0.89244953     0.81300
N1480       N  0.67843099  0.34146180  0.90658846    -0.79400
C1481       C  0.69383914  0.37229307  0.89189036     0.81400
N1482       N  0.67801461  0.38651153  0.86113673    -0.81100
C1483       C  0.78974531  0.37049038  0.60432871     0.00900
C1484       C  0.80829922  0.38677430  0.63365182     0.00900
C1485       C  0.78892628  0.41661695  0.64869451     0.00900
C1486       C  0.74941149  0.41578452  0.64880765     0.00900
C1487       C  0.73077040  0.38650209  0.63255071     0.00900
C1488       C  0.75027957  0.37103728  0.60302237     0.00900
C1489       C  0.64859016  0.41579829  0.79019798     0.00900
C1490       C  0.63247935  0.38633482  0.80865444     0.00900
C1491       C  0.60283991  0.37117202  0.78917445     0.00900
C1492       C  0.60382450  0.37108454  0.74967935     0.00900
C1493       C  0.63311426  0.38742167  0.73112642     0.00900
C1494       C  0.64834851  0.41701478  0.75069031     0.00900
C1495       C  0.69359367  0.37227621  0.64719964     0.78800
N1496       N  0.67769894  0.34155989  0.63301286    -0.79500
C1497       C  0.64685187  0.32620365  0.64771428     0.81300
N1498       N  0.63271250  0.34202578  0.67851558    -0.79400
C1499       C  0.64745980  0.37284434  0.69393539     0.81400
N1500       N  0.67825015  0.38698602  0.67808535    -0.81100
C1501       C  0.64856155  0.27051626  0.60403391     0.00900
C1502       C  0.63225677  0.28907865  0.63331196     0.00900
C1503       C  0.60264254  0.26957921  0.64847969     0.00900
C1504       C  0.60382238  0.23009422  0.64880755     0.00900
C1505       C  0.63323168  0.21159358  0.63269289     0.00900
C1506       C  0.64838630  0.23103532  0.60298552     0.00900
C1507       C  0.78900553  0.12916624  0.60299678     0.00900
C1508       C  0.80854790  0.11370707  0.63252314     0.00900
C1509       C  0.78992855  0.08441054  0.64878539     0.00900
C1510       C  0.75042880  0.08351878  0.64870475     0.00900
C1511       C  0.73104886  0.11333463  0.63368133     0.00900
C1512       C  0.74954642  0.12964810  0.60434135     0.00900
C1513       C  0.64772190  0.17456834  0.64752540     0.78800
N1514       N  0.67852224  0.15877932  0.63339482    -0.79500
C1515       C  0.69397232  0.12798817  0.64814355     0.81300
N1516       N  0.67818350  0.11381670  0.67894290    -0.79400
C1517       C  0.64730379  0.12845627  0.69431717     0.81400
N1518       N  0.63305179  0.15919265  0.67842564    -0.81100
C1519       C  0.64840511  0.08310880  0.78939052     0.00900
C1520       C  0.63316556  0.11267154  0.80891791     0.00900
C1521       C  0.60390907  0.12902880  0.79034573     0.00900
C1522       C  0.60294481  0.12902250  0.75085811     0.00900
C1523       C  0.63264120  0.11393091  0.73141697     0.00900
C1524       C  0.64876241  0.08444764  0.74989541     0.00900
C1525       C  0.93686827  0.23045573  0.64800663     0.00900
C1526       C  0.93591354  0.27001593  0.64819307     0.00900
C1527       C  0.90635039  0.28858331  0.63235261     0.00900
C1528       C  0.89094288  0.26915076  0.60279973     0.00900
C1529       C  0.89061956  0.22967562  0.60392270     0.00900
C1530       C  0.90706461  0.21107315  0.63310826     0.00900
C1531       C  0.89081363  0.08316514  0.75068438     0.00900
C1532       C  0.89051421  0.08429450  0.79019392     0.00900
C1533       C  0.90681949  0.11360264  0.80873600     0.00900
C1534       C  0.93657994  0.12862568  0.78932143     0.00900
C1535       C  0.93569939  0.12873396  0.74975407     0.00900
C1536       C  0.90622553  0.11270194  0.73116310     0.00900
C1537       C  0.89249499  0.17396982  0.64763082     0.78800
N1538       N  0.86163797  0.15861336  0.63296142    -0.79500
C1539       C  0.84572792  0.12793483  0.64718609     0.81300
N1540       N  0.86107129  0.11325518  0.67809566    -0.79400
C1541       C  0.89188870  0.12737156  0.69394361     0.81400
N1542       N  0.90666401  0.15816913  0.67846768    -0.81100
C1543       C  0.93570527  0.37110913  0.79018700     0.00900
C1544       C  0.90626825  0.38718535  0.80879647     0.00900
C1545       C  0.89090109  0.41672319  0.78932751     0.00900
C1546       C  0.89053679  0.41549790  0.74982562     0.00900
C1547       C  0.90683242  0.38616288  0.73125081     0.00900
C1548       C  0.93661854  0.37116296  0.75063108     0.00900
C1549       C  0.89183934  0.32560902  0.64726534     0.78800
N1550       N  0.86095675  0.34136725  0.63321406    -0.79500
C1551       C  0.84545800  0.37212456  0.64801888     0.81300
N1552       N  0.86128054  0.38627251  0.67880394    -0.79400
C1553       C  0.89221807  0.37167399  0.69411338     0.81400
N1554       N  0.90654037  0.34098844  0.67815053    -0.81100
C1555       C  0.84563386  0.37193680  0.89262412     0.78800
N1556       N  0.86103949  0.38666009  0.86177384    -0.79500
C1557       C  0.89187122  0.37252723  0.84595558     0.81300
N1558       N  0.90660520  0.34170355  0.86138161    -0.79400
C1559       C  0.89238382  0.32586156  0.89214538     0.81400
N1560       N  0.86150122  0.34120424  0.90679558    -0.81100
O1561       O  0.55745338  0.31640837  0.89440973    -0.74300
O1562       O  0.98194215  0.37459374  0.83690981    -0.75300
O1563       O  0.97749669  0.32121081  0.89190941    -0.63900
O1564       O  0.56241851  0.37114607  0.84110107    -0.72300
O1565       O  0.55032754  0.33493600  0.79556002    -0.71900
O1566       O  0.98863484  0.27618648  0.85477877    -0.63100
O1567       O  0.97556939  0.32435237  0.80510965    -0.75600
O1568       O  0.56474915  0.28535356  0.84376828    -0.74400
Cu1569     Cu  0.52000322  0.34802558  0.86805622     1.04600
Cu1570     Cu  0.51993482  0.30382530  0.82387143     1.04300
C1571       C  0.57399434  0.29183738  0.87600370     0.91900
C1572       C  0.96582926  0.35634368  0.81193020     0.91000
C1573       C  0.96923645  0.28990141  0.87934401     0.83200
C1574       C  0.57026842  0.35894390  0.80956753     0.89400
O1575       O  0.89395656  0.03774686  0.83655955    -0.74300
O1576       O  0.83625176  0.46226203  0.89469246    -0.75300
O1577       O  0.89094812  0.45737880  0.84119915    -0.63900
O1578       O  0.84080441  0.04258210  0.89150281    -0.72300
O1579       O  0.79526639  0.03057214  0.85529059    -0.71900
O1580       O  0.85462258  0.46931473  0.79572725    -0.63100
O1581       O  0.80509711  0.45504389  0.84412979    -0.75600
O1582       O  0.84333764  0.04494021  0.80548010    -0.74400
Cu1583     Cu  0.86776436  0.49986216  0.86821888     1.04600
Cu1584     Cu  0.82353970  0.49985804  0.82406007     1.04300
C1585       C  0.87554212  0.05429814  0.81198618     0.91900
C1586       C  0.81165478  0.44570075  0.87632535     0.91000
C1587       C  0.87868667  0.44940425  0.80970643     0.83200
C1588       C  0.80929449  0.05051547  0.87929433     0.89400
O1589       O  0.83583586  0.37410224  0.55761926    -0.74300
O1590       O  0.89385487  0.31619023  0.98246880    -0.75300
O1591       O  0.84059580  0.37070413  0.97744548    -0.63900
O1592       O  0.89079330  0.32116949  0.56247670    -0.72300
O1593       O  0.85512492  0.27538265  0.54986209    -0.71900
O1594       O  0.79488595  0.33477284  0.98969636    -0.63100
O1595       O  0.84312965  0.28535025  0.97477064    -0.75600
O1596       O  0.80514824  0.32325448  0.56501823    -0.74400
Cu1597     Cu  0.86759223  0.34801399  0.52005463     1.04600
Cu1598     Cu  0.82358359  0.30377224  0.51981246     1.04300
C1599       C  0.81150611  0.35552355  0.57432823     0.91900
C1600       C  0.87541276  0.29184297  0.96566041     0.91000
C1601       C  0.80906835  0.35856708  0.96956065     0.83200
C1602       C  0.87881758  0.28951668  0.57011978     0.89400
O1603       O  0.70306803  0.03745289  0.89469053    -0.74300
O1604       O  0.64516547  0.46223919  0.83667111    -0.75300
O1605       O  0.69850434  0.45726827  0.89148536    -0.63900
O1606       O  0.64837084  0.04234169  0.84117088    -0.72300
O1607       O  0.68468336  0.03049939  0.79565731    -0.71900
O1608       O  0.74399783  0.46926384  0.85520590    -0.63100
O1609       O  0.69576124  0.45501309  0.80556228    -0.75600
O1610       O  0.73419220  0.04478801  0.84413000    -0.74400
Cu1611     Cu  0.67158443  0.99985028  0.86815449     1.04600
Cu1612     Cu  0.71579544  0.99995622  0.82397905     1.04300
C1613       C  0.72764930  0.05407289  0.87635123     0.91900
C1614       C  0.66354913  0.44571664  0.81205518     0.91000
C1615       C  0.73000415  0.44932816  0.87923520     0.83200
C1616       C  0.66061515  0.05037459  0.80968537     0.89400
O1617       O  0.98192275  0.18297102  0.89484706    -0.74300
O1618       O  0.55728857  0.12555105  0.83654978    -0.75300
O1619       O  0.56215458  0.17878526  0.89130676    -0.63900
O1620       O  0.97737224  0.12826438  0.84111454    -0.72300
O1621       O  0.98833640  0.16564341  0.79623693    -0.71900
O1622       O  0.55014236  0.22436912  0.85512992    -0.63100
O1623       O  0.56465520  0.17619844  0.80554292    -0.75600
O1624       O  0.97549995  0.21492979  0.84471132    -0.74400
Cu1625     Cu  0.51974938  0.15194486  0.86804324     1.04600
Cu1626     Cu  0.51980163  0.19615476  0.82386578     1.04300
C1627       C  0.96583380  0.20804081  0.87670410     0.91900
C1628       C  0.57391008  0.14397217  0.81204442     0.91000
C1629       C  0.57008014  0.21029334  0.87910766     0.83200
C1630       C  0.96902453  0.14097436  0.80987591     0.89400
O1631       O  0.74422064  0.33509926  0.55011229    -0.74300
O1632       O  0.68404980  0.27519540  0.98987506    -0.75300
O1633       O  0.73398300  0.32301553  0.97460141    -0.63900
O1634       O  0.69588665  0.28570479  0.56495176    -0.72300
O1635       O  0.64519001  0.31656586  0.55724844    -0.71900
O1636       O  0.70341620  0.37391891  0.98221052    -0.63100
O1637       O  0.64847768  0.32105702  0.97723045    -0.75600
O1638       O  0.69855710  0.37111782  0.56225370    -0.74400
Cu1639     Cu  0.71578956  0.30374009  0.51987707     1.04600
Cu1640     Cu  0.67172252  0.34796156  0.51972748     1.04300
C1641       C  0.73007051  0.35894440  0.57020261     0.91900
C1642       C  0.66043083  0.28940435  0.96957826     0.91000
C1643       C  0.72769111  0.35533417  0.96543356     0.83200
C1644       C  0.66360986  0.29219618  0.57407192     0.89400
O1645       O  0.85525648  0.22464756  0.99000245    -0.74300
O1646       O  0.79498293  0.16513693  0.55004332    -0.75300
O1647       O  0.84326538  0.21457718  0.56483291    -0.63900
O1648       O  0.80529986  0.17681975  0.97469687    -0.72300
O1649       O  0.83584830  0.12590871  0.98233396    -0.71900
O1650       O  0.89394182  0.18366572  0.55715308    -0.63100
O1651       O  0.84065236  0.12911410  0.56213444    -0.75600
O1652       O  0.89078623  0.17876722  0.97731510    -0.74400
Cu1653     Cu  0.82339027  0.19653600  0.51974954     1.04600
Cu1654     Cu  0.86746978  0.15230554  0.51962206     1.04300
C1655       C  0.87885033  0.21043352  0.96968997     0.91900
C1656       C  0.80915782  0.14128984  0.57013184     0.91000
C1657       C  0.87552673  0.20803100  0.57397806     0.83200
C1658       C  0.81158018  0.14449173  0.96554589     0.89400
O1659       O  0.89400701  0.46198978  0.70350068    -0.74300
O1660       O  0.83615829  0.03771047  0.64544042    -0.75300
O1661       O  0.89081664  0.04249903  0.69889277    -0.63900
O1662       O  0.84087552  0.45712781  0.64862919    -0.72300
O1663       O  0.79541093  0.46918849  0.68490629    -0.71900
O1664       O  0.85447877  0.03064328  0.74438480    -0.63100
O1665       O  0.80501403  0.04500751  0.69599490    -0.75600
O1666       O  0.84342668  0.45491519  0.73468288    -0.74400
Cu1667     Cu  0.86777939  0.49959640  0.67190811     1.04600
Cu1668     Cu  0.82357029  0.49974791  0.71609063     1.04300
C1669       C  0.87558935  0.44548343  0.72808750     0.91900
C1670       C  0.81159926  0.05433689  0.66379255     0.91000
C1671       C  0.87855494  0.05051003  0.73036588     0.83200
C1672       C  0.80938346  0.44921863  0.66088999     0.89400
O1673       O  0.55011543  0.27578446  0.68464491    -0.74300
O1674       O  0.98843542  0.33410151  0.74366816    -0.75300
O1675       O  0.97571565  0.28487126  0.69501560    -0.63900
O1676       O  0.56452941  0.32386175  0.73443338    -0.72300
O1677       O  0.55719154  0.37450700  0.70342208    -0.71900
O1678       O  0.98200217  0.31693793  0.64494386    -0.63100
O1679       O  0.97747541  0.37154816  0.69884303    -0.75600
O1680       O  0.56205627  0.32139689  0.64849076    -0.74400
Cu1681     Cu  0.51970955  0.30382452  0.71593409     1.04600
Cu1682     Cu  0.51964058  0.34814316  0.67184373     1.04300
C1683       C  0.57000332  0.28987863  0.66065607     0.91900
C1684       C  0.96910553  0.35879745  0.73006513     0.91000
C1685       C  0.96597422  0.29180248  0.66304993     0.83200
C1686       C  0.57380749  0.35609720  0.72794716     0.89400
O1687       O  0.98861289  0.22358313  0.68497143    -0.74300
O1688       O  0.55041022  0.16530067  0.74439769    -0.75300
O1689       O  0.56461348  0.21481619  0.69603132    -0.63900
O1690       O  0.97570391  0.17548748  0.73479543    -0.72300
O1691       O  0.98193312  0.12528027  0.70293220    -0.71900
O1692       O  0.55746909  0.18360034  0.64547972    -0.63100
O1693       O  0.56245122  0.12895247  0.69895181    -0.75600
O1694       O  0.97757896  0.17858922  0.64777676    -0.74400
Cu1695     Cu  0.51985586  0.19625752  0.71602033     1.04600
Cu1696     Cu  0.52000594  0.15198808  0.67187928     1.04300
C1697       C  0.96929120  0.20988894  0.66035769     0.91900
C1698       C  0.57034373  0.14124155  0.73044561     0.91000
C1699       C  0.57392583  0.20827511  0.66382364     0.83200
C1700       C  0.96587694  0.14351066  0.72797267     0.89400
O1701       O  0.70316268  0.46252262  0.64551804    -0.74300
O1702       O  0.64525495  0.03802290  0.70350503    -0.75300
O1703       O  0.69846053  0.04302043  0.64868334    -0.63900
O1704       O  0.64842331  0.45778338  0.69896011    -0.72300
O1705       O  0.68480820  0.46946499  0.74446316    -0.71900
O1706       O  0.74395269  0.03089885  0.68490601    -0.63100
O1707       O  0.69586478  0.04515124  0.73463245    -0.75600
O1708       O  0.73433829  0.45522587  0.69604728    -0.74400
Cu1709     Cu  0.67155670  0.00049049  0.67187446     1.04600
Cu1710     Cu  0.71591581  0.50006767  0.71623510     1.04300
C1711       C  0.72774349  0.44589168  0.66384354     0.91900
C1712       C  0.66368353  0.05452800  0.72808665     0.91000
C1713       C  0.72997347  0.05090266  0.66091506     0.83200
C1714       C  0.66066807  0.44968984  0.73042213     0.89400
O1715       O  0.64527438  0.18364885  0.98246302    -0.74300
O1716       O  0.70341170  0.12608412  0.55767073    -0.75300
O1717       O  0.64849571  0.17906320  0.56259084    -0.63900
O1718       O  0.69863951  0.12914742  0.97748198    -0.72300
O1719       O  0.74433588  0.16512350  0.98967579    -0.71900
O1720       O  0.68421479  0.22483578  0.55005224    -0.63100
O1721       O  0.73410881  0.17691647  0.56512566    -0.75600
O1722       O  0.69600934  0.21444369  0.97468070    -0.74400
Cu1723     Cu  0.67169204  0.15223224  0.52012455     1.04600
Cu1724     Cu  0.71572849  0.19645147  0.51994478     1.04300
C1725       C  0.66370982  0.20798599  0.96562464     0.91900
C1726       C  0.72774937  0.14464011  0.57439162     0.91000
C1727       C  0.66049981  0.21069362  0.57028486     0.83200
C1728       C  0.73017895  0.14126987  0.96960209     0.89400
C1729       C  0.93672576  0.76957497  0.39127548     0.00900
C1730       C  0.93566121  0.73001397  0.39100983     0.00900
C1731       C  0.90615750  0.71143931  0.40699873     0.00900
C1732       C  0.89087593  0.73089434  0.43664811     0.00900
C1733       C  0.89062127  0.77040667  0.43559899     0.00900
C1734       C  0.90700014  0.78903464  0.40635805     0.00900
C1735       C  0.89170313  0.67429163  0.39221556     0.78800
N1736       N  0.86087900  0.65847737  0.40635326    -0.79500
C1737       C  0.84543261  0.62763084  0.39164701     0.81300
N1738       N  0.86127018  0.61343103  0.36088108    -0.79400
C1739       C  0.89216015  0.62806369  0.34549063     0.81400
N1740       N  0.90640754  0.65884266  0.36135628    -0.81100
C1741       C  0.78981073  0.62918400  0.43550400     0.00900
C1742       C  0.80828633  0.61295572  0.40609523     0.00900
C1743       C  0.78879449  0.58320643  0.39100799     0.00900
C1744       C  0.74927872  0.58413118  0.39100553     0.00900
C1745       C  0.73074920  0.61347771  0.40726894     0.00900
C1746       C  0.75032264  0.62885206  0.43679069     0.00900
C1747       C  0.64843151  0.76938890  0.43680758     0.00900
C1748       C  0.63325159  0.78883097  0.40711301     0.00900
C1749       C  0.60387174  0.77024249  0.39098973     0.00900
C1750       C  0.60278033  0.73072986  0.39129211     0.00900
C1751       C  0.63244878  0.71127557  0.40643452     0.00900
C1752       C  0.64870228  0.72987414  0.43575739     0.00900
C1753       C  0.64702423  0.67409539  0.39202822     0.78800
N1754       N  0.63287255  0.65826871  0.36120794    -0.79500
C1755       C  0.64754338  0.62737064  0.34583177     0.81300
N1756       N  0.67826009  0.61315495  0.36173916    -0.79400
C1757       C  0.69362741  0.62785471  0.39261658     0.81400
N1758       N  0.67781728  0.65864906  0.40676868    -0.81100
C1759       C  0.78998774  0.91612844  0.39094601     0.00900
C1760       C  0.80857224  0.88678996  0.40719016     0.00900
C1761       C  0.78901359  0.87144432  0.43675544     0.00900
C1762       C  0.74951094  0.87112224  0.43554763     0.00900
C1763       C  0.73100832  0.88733036  0.40614815     0.00900
C1764       C  0.75046691  0.91705304  0.39100962     0.00900
C1765       C  0.64717777  0.87207737  0.34554325     0.78800
N1766       N  0.63297299  0.84132695  0.36145494    -0.79500
C1767       C  0.64766377  0.82596163  0.39234847     0.81300
N1768       N  0.67845165  0.84182189  0.40648721    -0.79400
C1769       C  0.69387225  0.87264411  0.39172795     0.81400
N1770       N  0.67804403  0.88677663  0.36092026    -0.81100
C1771       C  0.78982956  0.87069223  0.10406543     0.00900
C1772       C  0.80833227  0.88705570  0.13335451     0.00900
C1773       C  0.78886726  0.91685894  0.14831105     0.00900
C1774       C  0.74935228  0.91587859  0.14838086     0.00900
C1775       C  0.73082440  0.88645796  0.13227071     0.00900
C1776       C  0.75036931  0.87102802  0.10279332     0.00900
C1777       C  0.64874185  0.91585786  0.28976847     0.00900
C1778       C  0.63253094  0.88648088  0.30837213     0.00900
C1779       C  0.60285962  0.87126211  0.28893118     0.00900
C1780       C  0.60390391  0.87105932  0.24942508     0.00900
C1781       C  0.63319893  0.88732128  0.23081248     0.00900
C1782       C  0.64839517  0.91699751  0.25025169     0.00900
C1783       C  0.69369359  0.87212962  0.14692644     0.78800
N1784       N  0.67786554  0.84135859  0.13276834    -0.79500
C1785       C  0.64703063  0.82597094  0.14747004     0.81300
N1786       N  0.63285364  0.84180941  0.17825481    -0.79400
C1787       C  0.64755076  0.87267335  0.19364356     0.81400
N1788       N  0.67831299  0.88684681  0.17777969    -0.81100
C1789       C  0.64877110  0.77021169  0.10383262     0.00900
C1790       C  0.63244881  0.78882805  0.13306845     0.00900
C1791       C  0.60273364  0.76942345  0.14812418     0.00900
C1792       C  0.60383347  0.72991449  0.14842840     0.00900
C1793       C  0.63321720  0.71130370  0.13236510     0.00900
C1794       C  0.64845568  0.73073017  0.10272449     0.00900
C1795       C  0.78888757  0.62891716  0.10291432     0.00900
C1796       C  0.80841949  0.61356015  0.13245696     0.00900
C1797       C  0.78986485  0.58413156  0.14853647     0.00900
C1798       C  0.75034993  0.58309959  0.14837906     0.00900
C1799       C  0.73088944  0.61284354  0.13333332     0.00900
C1800       C  0.74941644  0.62918270  0.10406726     0.00900
C1801       C  0.64758506  0.67416944  0.14711605     0.78800
N1802       N  0.67835127  0.65830365  0.13297157    -0.79500
C1803       C  0.69375661  0.62747356  0.14771030     0.81300
N1804       N  0.67794332  0.61332928  0.17850324    -0.79400
C1805       C  0.64710510  0.62804214  0.19389437     0.81400
N1806       N  0.63290222  0.65880983  0.17801220    -0.81100
C1807       C  0.64838506  0.58304771  0.28912024     0.00900
C1808       C  0.63320831  0.61272811  0.30862969     0.00900
C1809       C  0.60392959  0.62904765  0.29004286     0.00900
C1810       C  0.60290470  0.62889277  0.25054226     0.00900
C1811       C  0.63251444  0.61364009  0.23106580     0.00900
C1812       C  0.64868987  0.58421451  0.24959903     0.00900
C1813       C  0.93672669  0.73054896  0.14818247     0.00900
C1814       C  0.93567424  0.77010434  0.14841602     0.00900
C1815       C  0.90615331  0.78866881  0.13248510     0.00900
C1816       C  0.89080099  0.76920489  0.10290741     0.00900
C1817       C  0.89050169  0.72972794  0.10402370     0.00900
C1818       C  0.90695188  0.71112002  0.13319679     0.00900
C1819       C  0.89090954  0.58294607  0.25025525     0.00900
C1820       C  0.89042623  0.58422089  0.28975225     0.00900
C1821       C  0.90680067  0.61351838  0.30835579     0.00900
C1822       C  0.93665438  0.62847218  0.28898728     0.00900
C1823       C  0.93578003  0.62854522  0.24942978     0.00900
C1824       C  0.90636073  0.61245548  0.23079273     0.00900
C1825       C  0.89238875  0.67394669  0.14757867     0.78800
N1826       N  0.86147228  0.65862209  0.13294544    -0.79500
C1827       C  0.84562853  0.62784533  0.14708330     0.81300
N1828       N  0.86109373  0.61306897  0.17787288    -0.79400
C1829       C  0.89194735  0.62717103  0.19366789     0.81400
N1830       N  0.90665933  0.65802692  0.17828118    -0.81100
C1831       C  0.93577990  0.87162158  0.29007966     0.00900
C1832       C  0.90638118  0.88775885  0.30870263     0.00900
C1833       C  0.89092768  0.91724956  0.28915575     0.00900
C1834       C  0.89046577  0.91592639  0.24964953     0.00900
C1835       C  0.90676677  0.88656064  0.23112523     0.00900
C1836       C  0.93659530  0.87161237  0.25052090     0.00900
C1837       C  0.89171966  0.82579205  0.14727123     0.78800
N1838       N  0.86091290  0.84159786  0.13312111    -0.79500
C1839       C  0.84546388  0.87243409  0.14781142     0.81300
N1840       N  0.86127093  0.88664258  0.17858286    -0.79400
C1841       C  0.89214838  0.87200671  0.19399235     0.81400
N1842       N  0.90640500  0.84122843  0.17814088    -0.81100
C1843       C  0.84577769  0.87246967  0.39256251     0.78800
N1844       N  0.86121972  0.88722611  0.36174384    -0.79500
C1845       C  0.89201494  0.87307119  0.34588459     0.81300
N1846       N  0.90669717  0.84217454  0.36125385    -0.79400
C1847       C  0.89246207  0.82626772  0.39199706     0.81400
N1848       N  0.86160004  0.84166135  0.40668661    -0.81100
O1849       O  0.55738594  0.81663241  0.39430536    -0.74300
O1850       O  0.98223250  0.87492793  0.33666386    -0.75300
O1851       O  0.97754258  0.82137296  0.39148448    -0.63900
O1852       O  0.56220533  0.87127753  0.34077953    -0.72300
O1853       O  0.55045793  0.83476665  0.29539085    -0.71900
O1854       O  0.98885935  0.77619791  0.35459294    -0.63100
O1855       O  0.97546615  0.82462488  0.30505113    -0.75600
O1856       O  0.56455098  0.78533023  0.34381577    -0.74400
Cu1857     Cu  0.51979276  0.84806445  0.36786372     1.04600
Cu1858     Cu  0.51981945  0.80377817  0.32369893     1.04300
C1859       C  0.57389710  0.79197127  0.37598880     0.91900
C1860       C  0.96590814  0.85670598  0.31179914     0.91000
C1861       C  0.96930770  0.79002501  0.37899391     0.83200
C1862       C  0.57024818  0.85895370  0.30932965     0.89400
O1863       O  0.89371379  0.53771259  0.33604420    -0.74300
O1864       O  0.83619660  0.96288948  0.39438364    -0.75300
O1865       O  0.89090205  0.95801019  0.34093203    -0.63900
O1866       O  0.84063423  0.54260003  0.39092821    -0.72300
O1867       O  0.79509933  0.53067245  0.35468237    -0.71900
O1868       O  0.85470162  0.96992056  0.29535266    -0.63100
O1869       O  0.80519606  0.95551010  0.34376019    -0.75600
O1870       O  0.84315358  0.54488345  0.30483730    -0.74400
Cu1871     Cu  0.86768709  0.00049766  0.36788957     1.04600
Cu1872     Cu  0.82352966  0.00039679  0.32368254     1.04300
C1873       C  0.87534012  0.55426817  0.31146471     0.91900
C1874       C  0.81169922  0.94621445  0.37598505     0.91000
C1875       C  0.87870545  0.94999469  0.30942873     0.83200
C1876       C  0.80914465  0.55058048  0.37871506     0.89400
O1877       O  0.83596179  0.87421718  0.05742385    -0.74300
O1878       O  0.89396875  0.81656565  0.48231856    -0.75300
O1879       O  0.84074800  0.87135664  0.47750532    -0.63900
O1880       O  0.89075461  0.82111667  0.06244094    -0.72300
O1881       O  0.85494610  0.77538352  0.05000591    -0.71900
O1882       O  0.79515449  0.83516576  0.48938168    -0.63100
O1883       O  0.84336058  0.78551081  0.47491527    -0.75600
O1884       O  0.80523126  0.82341671  0.06496642    -0.74400
Cu1885     Cu  0.86760314  0.84792629  0.01995736     1.04600
Cu1886     Cu  0.82350487  0.80375643  0.01988235     1.04300
C1887       C  0.81160382  0.85569976  0.07415150     0.91900
C1888       C  0.87557976  0.79208145  0.46562664     0.91000
C1889       C  0.80925797  0.85917513  0.46947481     0.83200
C1890       C  0.87869578  0.78952005  0.07019439     0.89400
O1891       O  0.70300086  0.53740196  0.39440264    -0.74300
O1892       O  0.64536333  0.96242279  0.33608270    -0.75300
O1893       O  0.69857149  0.95760689  0.39093953    -0.63900
O1894       O  0.64830223  0.54231768  0.34092745    -0.72300
O1895       O  0.68449631  0.53032887  0.29536617    -0.71900
O1896       O  0.74405124  0.96951852  0.35461780    -0.63100
O1897       O  0.69591285  0.95529948  0.30486766    -0.75600
O1898       O  0.73398578  0.54481190  0.34377737    -0.74400
Cu1899     Cu  0.67149089  0.49979158  0.36788666     1.04600
Cu1900     Cu  0.71566635  0.49989095  0.32372496     1.04300
C1901       C  0.72751265  0.55407744  0.37601739     0.91900
C1902       C  0.66373948  0.94588401  0.31148258     0.91000
C1903       C  0.73006067  0.94964132  0.37870056     0.83200
C1904       C  0.66052431  0.55030103  0.30942601     0.89400
O1905       O  0.98194248  0.68330157  0.39441946    -0.74300
O1906       O  0.55739197  0.62558993  0.33636485    -0.75300
O1907       O  0.56228454  0.67878528  0.39129372    -0.63900
O1908       O  0.97731765  0.62838742  0.34092824    -0.72300
O1909       O  0.98871146  0.66530684  0.29579724    -0.71900
O1910       O  0.55024111  0.72433605  0.35510719    -0.63100
O1911       O  0.56458810  0.67622167  0.30530862    -0.75600
O1912       O  0.97538397  0.71496200  0.34410376    -0.74400
Cu1913     Cu  0.51985477  0.65188614  0.36799867     1.04600
Cu1914     Cu  0.51980416  0.69618712  0.32390279     1.04300
C1915       C  0.96573167  0.70821258  0.37615290     0.91900
C1916       C  0.57391858  0.64400425  0.31178700     0.91000
C1917       C  0.57016809  0.71032255  0.37911211     0.83200
C1918       C  0.96915170  0.64086251  0.30955345     0.89400
O1919       O  0.74428239  0.83489214  0.05005382    -0.74300
O1920       O  0.68441016  0.77573855  0.48956468    -0.75300
O1921       O  0.73412165  0.82389700  0.47482608    -0.63900
O1922       O  0.69607311  0.78535617  0.06472879    -0.72300
O1923       O  0.64539469  0.81630358  0.05716249    -0.71900
O1924       O  0.70318457  0.87458448  0.48214855    -0.63100
O1925       O  0.64835954  0.82133391  0.47729030    -0.75600
O1926       O  0.69863170  0.87096786  0.06211136    -0.74400
Cu1927     Cu  0.71594328  0.80356209  0.01975333     1.04600
Cu1928     Cu  0.67179785  0.84776732  0.01967062     1.04300
C1929       C  0.73015071  0.85881348  0.07005569     0.91900
C1930       C  0.66052508  0.78977762  0.46948335     0.91000
C1931       C  0.72768797  0.85613835  0.46552649     0.83200
C1932       C  0.66381533  0.79187603  0.07389319     0.89400
O1933       O  0.85487970  0.72455503  0.48946219    -0.74300
O1934       O  0.79499298  0.66497333  0.05016874    -0.75300
O1935       O  0.84316078  0.71454485  0.06489719    -0.63900
O1936       O  0.80520174  0.67639199  0.47475462    -0.72300
O1937       O  0.83612843  0.62569432  0.48206905    -0.71900
O1938       O  0.89384406  0.68360587  0.05736747    -0.63100
O1939       O  0.84064600  0.62892096  0.06229594    -0.75600
O1940       O  0.89090709  0.67895510  0.47715512    -0.74400
Cu1941     Cu  0.82331556  0.69628609  0.01988061     1.04600
Cu1942     Cu  0.86748446  0.65210524  0.01987030     1.04300
C1943       C  0.87874727  0.71051212  0.46934483     0.91900
C1944       C  0.80912307  0.64108232  0.07019933     0.91000
C1945       C  0.87542266  0.70804007  0.07408571     0.83200
C1946       C  0.81164068  0.64415702  0.46545064     0.89400
O1947       O  0.89382677  0.96236638  0.20323762    -0.74300
O1948       O  0.83610899  0.53745974  0.14495337    -0.75300
O1949       O  0.89086448  0.54233154  0.19834353    -0.63900
O1950       O  0.84074660  0.95744629  0.14828411    -0.72300
O1951       O  0.79518884  0.96947904  0.18446924    -0.71900
O1952       O  0.85470207  0.53026573  0.24390071    -0.63100
O1953       O  0.80511753  0.54474696  0.19561121    -0.75600
O1954       O  0.84322655  0.95523538  0.23438225    -0.74400
Cu1955     Cu  0.86760538  0.99992762  0.17157713     1.04600
Cu1956     Cu  0.82331114  0.00006178  0.21569256     1.04300
C1957       C  0.87542677  0.94585383  0.22783634     0.91900
C1958       C  0.81160533  0.55407580  0.16340273     0.91000
C1959       C  0.87868671  0.55024928  0.22987970     0.83200
C1960       C  0.80923407  0.94951740  0.16048838     0.89400
O1961       O  0.55024808  0.77587335  0.18434302    -0.74300
O1962       O  0.98853650  0.83470218  0.24367563    -0.75300
O1963       O  0.97532805  0.78514429  0.19532467    -0.63900
O1964       O  0.56455940  0.82391682  0.23419175    -0.72300
O1965       O  0.55737480  0.87454893  0.20311911    -0.71900
O1966       O  0.98184716  0.81689321  0.14505702    -0.63100
O1967       O  0.97723565  0.87174899  0.19861115    -0.75600
O1968       O  0.56225573  0.82140919  0.14812905    -0.74400
Cu1969     Cu  0.51980422  0.80396378  0.21559133     1.04600
Cu1970     Cu  0.51983034  0.84828837  0.17150017     1.04300
C1971       C  0.57014198  0.78986656  0.16030637     0.91900
C1972       C  0.96904600  0.85921243  0.22995388     0.91000
C1973       C  0.96569751  0.79191634  0.16328110     0.83200
C1974       C  0.57389569  0.85612445  0.22769428     0.89400
O1975       O  0.98878774  0.72390115  0.18491350    -0.74300
O1976       O  0.55066777  0.66554574  0.24404716    -0.75300
O1977       O  0.56458361  0.71489148  0.19559381    -0.63900
O1978       O  0.97543176  0.67554469  0.23449007    -0.72300
O1979       O  0.98220711  0.62524650  0.20285635    -0.71900
O1980       O  0.55748435  0.68345861  0.14516767    -0.63100
O1981       O  0.56226368  0.62886627  0.19873865    -0.75600
O1982       O  0.97753704  0.67873847  0.14798557    -0.74400
Cu1983     Cu  0.51996487  0.69642838  0.21577979     1.04600
Cu1984     Cu  0.51992211  0.65207789  0.17162579     1.04300
C1985       C  0.96928460  0.71008392  0.16047619     0.91900
C1986       C  0.57035042  0.64125502  0.23015001     0.91000
C1987       C  0.57391463  0.70819943  0.16343683     0.83200
C1988       C  0.96588262  0.64346881  0.22771938     0.89400
O1989       O  0.70302417  0.96251017  0.14489367    -0.74300
O1990       O  0.64526390  0.53765644  0.20323627    -0.75300
O1991       O  0.69845952  0.54252638  0.14834262    -0.63900
O1992       O  0.64829703  0.95763462  0.19834897    -0.72300
O1993       O  0.68456328  0.96964417  0.24384093    -0.71900
O1994       O  0.74400983  0.53048880  0.18454043    -0.63100
O1995       O  0.69587314  0.54483082  0.23434045    -0.75600
O1996       O  0.73409353  0.95523948  0.19549928    -0.74400
Cu1997     Cu  0.67156817  0.50005508  0.17160599     1.04600
Cu1998     Cu  0.71571171  0.00009637  0.21549950     1.04300
C1999       C  0.72758453  0.94591816  0.16329197     0.91900
C2000       C  0.66366999  0.55420942  0.22781094     0.91000
C2001       C  0.72997586  0.55044514  0.16055094     0.83200
C2002       C  0.66054609  0.94968816  0.22985274     0.89400
O2003       O  0.64534182  0.68366610  0.48244754    -0.74300
O2004       O  0.70326886  0.62561655  0.05740546    -0.75300
O2005       O  0.64845847  0.67876801  0.06232167    -0.63900
O2006       O  0.69862805  0.62892006  0.47760205    -0.72300
O2007       O  0.74419711  0.66515848  0.48942982    -0.71900
O2008       O  0.68429485  0.72448192  0.04986623    -0.63100
O2009       O  0.73399772  0.67642062  0.06490569    -0.75600
O2010       O  0.69592663  0.71476629  0.47508114    -0.74400
Cu2011     Cu  0.67164037  0.65189220  0.01989407     1.04600
Cu2012     Cu  0.71573422  0.69607697  0.01981819     1.04300
C2013       C  0.66371697  0.70818311  0.46578304     0.91900
C2014       C  0.72764498  0.64413862  0.07410858     0.91000
C2015       C  0.66052324  0.71037597  0.07003836     0.83200
C2016       C  0.73009963  0.64112944  0.46953598     0.89400
C2017       C  0.93672161  0.76937140  0.89153519     0.00900
C2018       C  0.93566596  0.72982596  0.89136298     0.00900
C2019       C  0.90616414  0.71127685  0.90735289     0.00900
C2020       C  0.89080014  0.73079867  0.93689527     0.00900
C2021       C  0.89058791  0.77028460  0.93576388     0.00900
C2022       C  0.90697785  0.78883843  0.90652278     0.00900
C2023       C  0.89177876  0.67410806  0.89262595     0.78800
N2024       N  0.86098443  0.65826007  0.90676837    -0.79500
C2025       C  0.84558892  0.62739363  0.89206817     0.81300
N2026       N  0.86145086  0.61320452  0.86130844    -0.79400
C2027       C  0.89231281  0.62789286  0.84591005     0.81400
N2028       N  0.90650033  0.65868820  0.86177114    -0.81100
C2029       C  0.78983840  0.62909738  0.93571837     0.00900
C2030       C  0.80842747  0.61274744  0.90646340     0.00900
C2031       C  0.78898868  0.58295951  0.89143086     0.00900
C2032       C  0.74946746  0.58396238  0.89124255     0.00900
C2033       C  0.73088794  0.61335514  0.90735777     0.00900
C2034       C  0.75036712  0.62870385  0.93691491     0.00900
C2035       C  0.64858466  0.76903590  0.93677281     0.00900
C2036       C  0.63341334  0.78850656  0.90710374     0.00900
C2037       C  0.60401119  0.76997430  0.89099405     0.00900
C2038       C  0.60279423  0.73048383  0.89133983     0.00900
C2039       C  0.63242832  0.71099466  0.90649033     0.00900
C2040       C  0.64872907  0.72955754  0.93573519     0.00900
C2041       C  0.64703078  0.67384677  0.89216958     0.78800
N2042       N  0.63283828  0.65799674  0.86142985    -0.79500
C2043       C  0.64753618  0.62715137  0.84605528     0.81300
N2044       N  0.67832473  0.61297147  0.86187530    -0.79400
C2045       C  0.69373263  0.62769306  0.89271126     0.81400
N2046       N  0.67789528  0.65847427  0.90685661    -0.81100
C2047       C  0.78994982  0.91585867  0.89120539     0.00900
C2048       C  0.80853861  0.88646193  0.90730775     0.00900
C2049       C  0.78902718  0.87105927  0.93683376     0.00900
C2050       C  0.74956390  0.87065173  0.93558305     0.00900
C2051       C  0.73102473  0.88701710  0.90631772     0.00900
C2052       C  0.75043484  0.91682602  0.89133660     0.00900
C2053       C  0.64727553  0.87183418  0.84565971     0.78800
N2054       N  0.63311006  0.84103222  0.86150033    -0.79500
C2055       C  0.64779709  0.82564031  0.89237983     0.81300
N2056       N  0.67854568  0.84150273  0.90655955    -0.79400
C2057       C  0.69392609  0.87236321  0.89186601     0.81400
N2058       N  0.67810593  0.88654515  0.86108396    -0.81100
C2059       C  0.78973175  0.87106231  0.60410771     0.00900
C2060       C  0.80829491  0.88729043  0.63347195     0.00900
C2061       C  0.78884252  0.91706256  0.64858741     0.00900
C2062       C  0.74931651  0.91615349  0.64869516     0.00900
C2063       C  0.73072587  0.88683202  0.63245095     0.00900
C2064       C  0.75023463  0.87150173  0.60287674     0.00900
C2065       C  0.64868858  0.91583063  0.79005712     0.00900
C2066       C  0.63260767  0.88631629  0.80853033     0.00900
C2067       C  0.60295530  0.87111534  0.78906124     0.00900
C2068       C  0.60387245  0.87109718  0.74956918     0.00900
C2069       C  0.63307946  0.88754776  0.73098798     0.00900
C2070       C  0.64829862  0.91715429  0.75054648     0.00900
C2071       C  0.69357260  0.87247303  0.64709361     0.78800
N2072       N  0.67776265  0.84166210  0.63296000    -0.79500
C2073       C  0.64693923  0.82623796  0.64768855     0.81300
N2074       N  0.63276780  0.84209001  0.67845407    -0.79400
C2075       C  0.64743250  0.87297922  0.69381234     0.81400
N2076       N  0.67817456  0.88719059  0.67794017    -0.81100
C2077       C  0.64862077  0.77049112  0.60404024     0.00900
C2078       C  0.63237007  0.78903681  0.63336121     0.00900
C2079       C  0.60278030  0.76949009  0.64857766     0.00900
C2080       C  0.60400077  0.72998895  0.64891521     0.00900
C2081       C  0.63342504  0.71148622  0.63276705     0.00900
C2082       C  0.64855284  0.73097997  0.60305668     0.00900
C2083       C  0.78921926  0.62868138  0.60290791     0.00900
C2084       C  0.80875242  0.61329573  0.63246413     0.00900
C2085       C  0.79013245  0.58399878  0.64872916     0.00900
C2086       C  0.75061165  0.58315288  0.64869490     0.00900
C2087       C  0.73119996  0.61294510  0.63360587     0.00900
C2088       C  0.74972306  0.62917077  0.60420626     0.00900
C2089       C  0.64788606  0.67436270  0.64750851     0.78800
N2090       N  0.67867329  0.65851338  0.63335305    -0.79500
C2091       C  0.69408627  0.62766467  0.64807431     0.81300
N2092       N  0.67824464  0.61349597  0.67886805    -0.79400
C2093       C  0.64737715  0.62818734  0.69425974     0.81400
N2094       N  0.63318786  0.65896294  0.67838478    -0.81100
C2095       C  0.64836092  0.58296789  0.78944257     0.00900
C2096       C  0.63315498  0.61258851  0.80891569     0.00900
C2097       C  0.60392482  0.62898003  0.79031780     0.00900
C2098       C  0.60296269  0.62889165  0.75082279     0.00900
C2099       C  0.63266377  0.61371282  0.73138941     0.00900
C2100       C  0.64878649  0.58425057  0.74993682     0.00900
C2101       C  0.93676032  0.73058394  0.64838598     0.00900
C2102       C  0.93566056  0.77013601  0.64858877     0.00900
C2103       C  0.90614747  0.78867970  0.63255664     0.00900
C2104       C  0.89085270  0.76915997  0.60295248     0.00900
C2105       C  0.89072110  0.72964232  0.60401710     0.00900
C2106       C  0.90707104  0.71107606  0.63331480     0.00900
C2107       C  0.89106946  0.58283758  0.75068541     0.00900
C2108       C  0.89075379  0.58402006  0.79021491     0.00900
C2109       C  0.90696119  0.61342551  0.80874968     0.00900
C2110       C  0.93666688  0.62856073  0.78929356     0.00900
C2111       C  0.93573850  0.62867094  0.74974918     0.00900
C2112       C  0.90638572  0.61243960  0.73114509     0.00900
C2113       C  0.89254729  0.67385427  0.64773185     0.78800
N2114       N  0.86174205  0.65841139  0.63299910    -0.79500
C2115       C  0.84591823  0.62761828  0.64713891     0.81300
N2116       N  0.86130030  0.61290468  0.67801181    -0.79400
C2117       C  0.89204370  0.62710307  0.69392355     0.81400
N2118       N  0.90672131  0.65800440  0.67854003    -0.81100
C2119       C  0.93566022  0.87124441  0.79014367     0.00900
C2120       C  0.90626290  0.88740481  0.80874751     0.00900
C2121       C  0.89092346  0.91700726  0.78927820     0.00900
C2122       C  0.89059631  0.91586812  0.74976126     0.00900
C2123       C  0.90690066  0.88653861  0.73116296     0.00900
C2124       C  0.93664493  0.87141793  0.75059895     0.00900
C2125       C  0.89170672  0.82585882  0.64728292     0.78800
N2126       N  0.86088295  0.84170858  0.63315412    -0.79500
C2127       C  0.84547274  0.87258022  0.64786684     0.81300
N2128       N  0.86135609  0.88676184  0.67862507    -0.79400
C2129       C  0.89223967  0.87207912  0.69400235     0.81400
N2130       N  0.90643745  0.84129386  0.67812810    -0.81100
C2131       C  0.84570007  0.87215217  0.89262790     0.78800
N2132       N  0.86109231  0.88687662  0.86177481    -0.79500
C2133       C  0.89188607  0.87272059  0.84591745     0.81300
N2134       N  0.90660214  0.84185881  0.86131512    -0.79400
C2135       C  0.89240712  0.82600197  0.89209176     0.81400
N2136       N  0.86155235  0.84138643  0.90677984    -0.81100
O2137       O  0.55761072  0.81637649  0.89435319    -0.74300
O2138       O  0.98210656  0.87458188  0.83667907    -0.75300
O2139       O  0.97740062  0.82123408  0.89162796    -0.63900
O2140       O  0.56248688  0.87104507  0.84095351    -0.72300
O2141       O  0.55053623  0.83468328  0.79549095    -0.71900
O2142       O  0.98895859  0.77591955  0.85498109    -0.63100
O2143       O  0.97523219  0.82416461  0.80524002    -0.75600
O2144       O  0.56484863  0.78519248  0.84378265    -0.74400
Cu2145     Cu  0.52010649  0.84791847  0.86797617     1.04600
Cu2146     Cu  0.52004977  0.80363667  0.82384463     1.04300
C2147       C  0.57412530  0.79175392  0.87599120     0.91900
C2148       C  0.96572897  0.85629049  0.81190083     0.91000
C2149       C  0.96929618  0.78981045  0.87926248     0.83200
C2150       C  0.57040618  0.85878702  0.80946019     0.89400
O2151       O  0.89411478  0.53747049  0.83661612    -0.74300
O2152       O  0.83622687  0.96250272  0.89465479    -0.75300
O2153       O  0.89089958  0.95766075  0.84115225    -0.63900
O2154       O  0.84086958  0.54234721  0.89150165    -0.72300
O2155       O  0.79534444  0.53036922  0.85525625    -0.71900
O2156       O  0.85454661  0.96955134  0.79569041    -0.63100
O2157       O  0.80508208  0.95525334  0.84409117    -0.75600
O2158       O  0.84352800  0.54470152  0.80549751    -0.74400
Cu2159     Cu  0.86768822  0.00012464  0.86817915     1.04600
Cu2160     Cu  0.82344181  0.00008282  0.82404205     1.04300
C2161       C  0.87573838  0.55403832  0.81202330     0.91900
C2162       C  0.81165551  0.94591381  0.87628000     0.91000
C2163       C  0.87864265  0.94966623  0.80966551     0.83200
C2164       C  0.80936959  0.55030188  0.87926832     0.89400
O2165       O  0.83604405  0.87436510  0.55754393    -0.74300
O2166       O  0.89402778  0.81638652  0.98247948    -0.75300
O2167       O  0.84080955  0.87108329  0.97746362    -0.63900
O2168       O  0.89076860  0.82101464  0.56236077    -0.72300
O2169       O  0.85453918  0.77548449  0.55034360    -0.71900
O2170       O  0.79510874  0.83516925  0.98973566    -0.63100
O2171       O  0.84327727  0.78561046  0.97482082    -0.75600
O2172       O  0.80491574  0.82378381  0.56481096    -0.74400
Cu2173     Cu  0.86758142  0.84802257  0.51994410     1.04600
Cu2174     Cu  0.82336631  0.80386019  0.51985978     1.04300
C2175       C  0.81148498  0.85599334  0.57414307     0.91900
C2176       C  0.87556604  0.79201757  0.96569940     0.91000
C2177       C  0.80925993  0.85896697  0.96960642     0.83200
C2178       C  0.87856466  0.78950453  0.57029278     0.89400
O2179       O  0.70315085  0.53734889  0.89469861    -0.74300
O2180       O  0.64528563  0.96226815  0.83651510    -0.75300
O2181       O  0.69849749  0.95736462  0.89140455    -0.63900
O2182       O  0.64833009  0.54230335  0.84133427    -0.72300
O2183       O  0.68455398  0.53031389  0.79580356    -0.71900
O2184       O  0.74399357  0.96941634  0.85515395    -0.63100
O2185       O  0.69587352  0.95512759  0.80536041    -0.75600
O2186       O  0.73423801  0.54459820  0.84409417    -0.74400
Cu2187     Cu  0.67156723  0.49978443  0.86827544     1.04600
Cu2188     Cu  0.71573836  0.49979520  0.82407259     1.04300
C2189       C  0.72772242  0.55392258  0.87630454     0.91900
C2190       C  0.66367765  0.94575858  0.81189994     0.91000
C2191       C  0.73000647  0.94945783  0.87916651     0.83200
C2192       C  0.66053734  0.55025652  0.80981410     0.89400
O2193       O  0.98200330  0.68320348  0.89471376    -0.74300
O2194       O  0.55722886  0.62551427  0.83647340    -0.75300
O2195       O  0.56219586  0.67863627  0.89135984    -0.63900
O2196       O  0.97732616  0.62846522  0.84114664    -0.72300
O2197       O  0.98879777  0.66528339  0.79593635    -0.71900
O2198       O  0.55008687  0.72429732  0.85533338    -0.63100
O2199       O  0.56465857  0.67621005  0.80556209    -0.75600
O2200       O  0.97516942  0.71474556  0.84434936    -0.74400
Cu2201     Cu  0.51971430  0.65187418  0.86805650     1.04600
Cu2202     Cu  0.51976173  0.69614415  0.82397030     1.04300
C2203       C  0.96567605  0.70803822  0.87645277     0.91900
C2204       C  0.57390090  0.64395863  0.81201656     0.91000
C2205       C  0.57008915  0.71018435  0.87923040     0.83200
C2206       C  0.96918729  0.64091631  0.80976475     0.89400
O2207       O  0.74400734  0.83541357  0.55014259    -0.74300
O2208       O  0.68460324  0.77522854  0.98951184    -0.75300
O2209       O  0.73427980  0.82333252  0.97472110    -0.63900
O2210       O  0.69580017  0.78580438  0.56478254    -0.72300
O2211       O  0.64511972  0.81672571  0.55734625    -0.71900
O2212       O  0.70337588  0.87405006  0.98217431    -0.63100
O2213       O  0.64861956  0.82090187  0.97725555    -0.75600
O2214       O  0.69840670  0.87152012  0.56222163    -0.74400
Cu2215     Cu  0.71569475  0.80409856  0.51983140     1.04600
Cu2216     Cu  0.67154480  0.84826649  0.51974579     1.04300
C2217       C  0.72993075  0.85934668  0.57014970     0.91900
C2218       C  0.66073991  0.78934031  0.96944141     0.91000
C2219       C  0.72781304  0.85559417  0.96549599     0.83200
C2220       C  0.66355485  0.79224758  0.57401972     0.89400
O2221       O  0.85464477  0.72462771  0.98959594    -0.74300
O2222       O  0.79533385  0.66473042  0.55009119    -0.75300
O2223       O  0.84350422  0.71438058  0.56476598    -0.63900
O2224       O  0.80502849  0.67643835  0.97486099    -0.72300
O2225       O  0.83596670  0.62575243  0.98237163    -0.71900
O2226       O  0.89419988  0.68350258  0.55724462    -0.63100
O2227       O  0.84098903  0.62869725  0.56215483    -0.75600
O2228       O  0.89067806  0.67896908  0.97745054    -0.74400
Cu2229     Cu  0.82360930  0.69613722  0.51977127     1.04600
Cu2230     Cu  0.86777255  0.65199530  0.51964044     1.04300
C2231       C  0.87855730  0.71051752  0.96957477     0.91900
C2232       C  0.80946541  0.64083848  0.57012244     0.91000
C2233       C  0.87575256  0.70791703  0.57399296     0.83200
C2234       C  0.81153457  0.64417867  0.96565651     0.89400
O2235       O  0.89392711  0.96245893  0.70345738    -0.74300
O2236       O  0.83635832  0.53723855  0.64537670    -0.75300
O2237       O  0.89102602  0.54206419  0.69890988    -0.63900
O2238       O  0.84071367  0.95764397  0.64860979    -0.72300
O2239       O  0.79520537  0.96959830  0.68488264    -0.71900
O2240       O  0.85467637  0.53030165  0.74441180    -0.63100
O2241       O  0.80525073  0.54459951  0.69593362    -0.75600
O2242       O  0.84336177  0.95524857  0.73461914    -0.74400
Cu2243     Cu  0.86760679  0.00007920  0.67190501     1.04600
Cu2244     Cu  0.82338869  0.00012458  0.71608328     1.04300
C2245       C  0.87555668  0.94587924  0.72803430     0.91900
C2246       C  0.81181316  0.55390086  0.66372384     0.91000
C2247       C  0.87877895  0.55013800  0.73038134     0.83200
C2248       C  0.80922421  0.94968276  0.66084294     0.89400
O2249       O  0.55005870  0.77562206  0.68457836    -0.74300
O2250       O  0.98887481  0.83474491  0.74399443    -0.75300
O2251       O  0.97522153  0.78521855  0.69560518    -0.63900
O2252       O  0.56465211  0.82379336  0.73429865    -0.72300
O2253       O  0.55714431  0.87447674  0.70339970    -0.71900
O2254       O  0.98207291  0.81671195  0.64521877    -0.63100
O2255       O  0.97737040  0.87149422  0.69874644    -0.75600
O2256       O  0.56213906  0.82129238  0.64855693    -0.74400
Cu2257     Cu  0.51973742  0.80379389  0.71591059     1.04600
Cu2258     Cu  0.51964321  0.84804277  0.67182015     1.04300
C2259       C  0.57005896  0.78975421  0.66069140     0.91900
C2260       C  0.96922001  0.85907428  0.73013927     0.91000
C2261       C  0.96570071  0.79192365  0.66350270     0.83200
C2262       C  0.57385008  0.85606438  0.72786085     0.89400
O2263       O  0.98906487  0.72407000  0.68490972    -0.74300
O2264       O  0.55036205  0.66514279  0.74443305    -0.75300
O2265       O  0.56474962  0.71470736  0.69613414    -0.63900
O2266       O  0.97530570  0.67577651  0.73464101    -0.72300
O2267       O  0.98221571  0.62535637  0.70322102    -0.71900
O2268       O  0.55749545  0.68361127  0.64552588    -0.63100
O2269       O  0.56244806  0.62891270  0.69891302    -0.75600
O2270       O  0.97747754  0.67874053  0.64830005    -0.74400
Cu2271     Cu  0.51987721  0.69623506  0.71605372     1.04600
Cu2272     Cu  0.51997684  0.65200734  0.67191116     1.04300
C2273       C  0.96936970  0.71016643  0.66065718     0.91900
C2274       C  0.57033891  0.64113767  0.73042872     0.91000
C2275       C  0.57406041  0.70818378  0.66391717     0.83200
C2276       C  0.96581948  0.64364066  0.72799526     0.89400
O2277       O  0.70307212  0.96290868  0.64535054    -0.74300
O2278       O  0.64543505  0.53781405  0.70353115    -0.75300
O2279       O  0.69869447  0.54261348  0.64872005    -0.63900
O2280       O  0.64831580  0.95795832  0.69878291    -0.72300
O2281       O  0.68452367  0.96982273  0.74436566    -0.71900
O2282       O  0.74409717  0.53072036  0.68514198    -0.63100
O2283       O  0.69594242  0.54486141  0.73483702    -0.75600
O2284       O  0.73409886  0.95547334  0.69595373    -0.74400
Cu2285     Cu  0.67172859  0.50019164  0.67199299     1.04600
Cu2286     Cu  0.71572277  0.00033913  0.71607212     1.04300
C2287       C  0.72759284  0.94622027  0.66371413     0.91900
C2288       C  0.66378867  0.55429408  0.72818238     0.91000
C2289       C  0.73016027  0.55058508  0.66101243     0.83200
C2290       C  0.66050823  0.94991723  0.73028380     0.89400
O2291       O  0.64524278  0.68342208  0.98239782    -0.74300
O2292       O  0.70335903  0.62588724  0.55766894    -0.75300
O2293       O  0.64856500  0.67913834  0.56248708    -0.63900
O2294       O  0.69849977  0.62869933  0.97744962    -0.72300
O2295       O  0.74415542  0.66467388  0.98972072    -0.71900
O2296       O  0.68478007  0.72468113  0.55045864    -0.63100
O2297       O  0.73448203  0.67647369  0.56492195    -0.75600
O2298       O  0.69599139  0.71422241  0.97478852    -0.74400
Cu2299     Cu  0.67177407  0.65220259  0.52006245     1.04600
Cu2300     Cu  0.71596595  0.69639720  0.51997291     1.04300
C2301       C  0.66370529  0.70782692  0.96567019     0.91900
C2302       C  0.72792583  0.64425983  0.57426159     0.91000
C2303       C  0.66077762  0.71064230  0.57041028     0.83200
C2304       C  0.73006032  0.64082255  0.96962656     0.89400
loop_ 
_geom_bond_atom_site_label_1 
_geom_bond_atom_site_label_2 
_geom_bond_distance 
_geom_bond_site_symmetry_2 
_ccdc_geom_bond_type 
C1            C2   1.456       .  A
C1            C6   1.422       .  A
C1          C133   1.487       .  S
C2            C3   1.412       .  A
C2          C187   1.472       .  S
C3            C4   1.423       .  A
C3            C7   1.564       .  S
C4            C5   1.456       .  A
C4          C215   1.488       .  S
C5            C6   1.413       .  A
C5          C160   1.472       .  S
C6          C119   1.564       .  S
C7            N8   1.378       .  A
C7           N12   1.382       .  A
N8            C9   1.381       .  A
C9           C14   1.564       .  S
C9           N10   1.379       .  A
N10          C11   1.382       .  A
C11          C93   1.565       .  S
C11          N12   1.379       .  A
C13          C14   1.412       .  A
C13          C18   1.456       .  A
C13         C218   1.473       .  S
C14          C15   1.423       .  A
C15          C16   1.457       .  A
C15         C148   1.489       .  S
C16          C17   1.413       .  A
C16         C173   1.474       .  S
C17          C18   1.424       .  A
C17          C29   1.565       .  S
C18         C288   1.488       .  S
C19          C20   1.424       .  A
C19          C24   1.456       .  A
C19         C202   1.488       .  S
C20          C21   1.413       .  A
C20          C39   1.565       .  S
C21          C22   1.457       .  A
C21         C131   1.475       .  S
C22          C23   1.423       .  A
C22         C189   1.488       .  S
C23          C24   1.412       .  A
C23          C25   1.565       .  S
C24         C285   1.473       .  S
C25          N26   1.379       .  A
C25          N30   1.382       .  A
N26          C27   1.382       .  A
C27          C80   1.565       .  S
C27          N28   1.379       .  A
N28          C29   1.382       .  A
C29          N30   1.378       .  A
C31          C32   1.413       .  A
C31          C36   1.457       .  A
C31         C146   1.475       .  S
C32          C33   1.423       .  A
C32         C115   1.564       .  S
C33          C34   1.456       .  A
C33         C161   1.490       .  S
C34          C35   1.413       .  A
C34         C203   1.472       .  S
C35          C36   1.424       .  A
C35          C41   1.565       .  S
C36         C175   1.488       .  S
C37          C50   1.566       .  S
C37          N38   1.379       .  A
C37          N42   1.382       .  A
N38          C39   1.382       .  A
C39          N40   1.379       .  A
N40          C41   1.382       .  A
C41          N42   1.379       .  A
C43          C44   1.413       .  A
C43          C48   1.457       .  A
C43         C159   1.474       .  S
C44          C45   1.423       .  A
C44         C111   1.565       .  S
C45          C46   1.457       .  A
C45         C232   1.489       .  S
C46          C47   1.414       .  A
C46         C271   1.474       .  S
C47          C48   1.424       .  A
C47          C55   1.566       .  S
C48         C201   1.488       .  S
C49          C50   1.413       .  A
C49          C54   1.457       .  A
C49         C174   1.473       .  S
C50          C51   1.423       .  A
C51          C52   1.457       .  A
C51         C134   1.488       .  S
C52          C53   1.414       .  A
C52         C246   1.475       .  S
C53          C54   1.423       .  A
C53          C59   1.565       .  S
C54         C274   1.490       .  S
C55          N56   1.379       .  A
C55          N60   1.382       .  A
N56          C57   1.382       .  A
C57          C62   1.565       .  S
C57          N58   1.379       .  A
N58          C59   1.382       .  A
C59          N60   1.379       .  A
C61          C62   1.413       .  A
C61          C66   1.457       .  A
C61         C204   1.473       .  S
C62          C63   1.423       .  A
C63          C64   1.457       .  A
C63         C243   1.488       .  S
C64          C65   1.413       .  A
C64         C259   1.474       .  S
C65          C66   1.423       .  A
C65          C73   1.565       .  S
C66         C287   1.488       .  S
C67          C68   1.423       .  A
C67          C72   1.456       .  A
C67         C216   1.489       .  S
C68          C69   1.413       .  A
C68          C99   1.564       .  S
C69          C70   1.457       .  A
C69         C230   1.475       .  S
C70          C71   1.423       .  A
C70         C273   1.488       .  S
C71          C72   1.413       .  A
C71          C75   1.565       .  S
C72         C286   1.473       .  S
C73          N74   1.379       .  A
C73          N78   1.382       .  A
N74          C75   1.382       .  A
C75          N76   1.379       .  A
N76          C77   1.382       .  A
C77          C83   1.565       .  S
C77          N78   1.379       .  A
C79          C80   1.423       .  A
C79          C84   1.457       .  A
C79         C176   1.489       .  S
C80          C81   1.414       .  A
C81          C82   1.457       .  A
C81         C188   1.474       .  S
C82          C83   1.423       .  A
C82         C258   1.488       .  S
C83          C84   1.413       .  A
C84         C272   1.473       .  S
C85          C86   1.456       .  A
C85          C90   1.422       .  A
C85         C257   1.487       .  S
C86          C87   1.412       .  A
C86         C245   1.472       .  S
C87          C88   1.422       .  A
C87         C109   1.565       .  S
C88          C89   1.457       .  A
C88         C162   1.488       .  S
C89          C90   1.412       .  A
C89         C217   1.472       .  S
C90          C97   1.565       .  S
C91          C92   1.457       .  A
C91          C96   1.423       .  A
C91         C231   1.489       .  S
C92          C93   1.413       .  A
C92         C145   1.473       .  S
C93          C94   1.423       .  A
C94          C95   1.456       .  A
C94         C190   1.487       .  S
C95          C96   1.412       .  A
C95         C260   1.473       .  S
C96         C101   1.564       .  S
C97          N98   1.381       .  A
C97         N102   1.379       .  A
N98          C99   1.379       .  A
C99         N100   1.382       .  A
N100        C101   1.378       .  A
C101        N102   1.382       .  A
C103        C104   1.413       .  A
C103        C108   1.456       .  A
C103        C132   1.473       .  S
C104        C105   1.423       .  A
C104        C117   1.565       .  S
C105        C106   1.457       .  A
C105        C147   1.487       .  S
C106        C107   1.412       .  A
C106        C229   1.474       .  S
C107        C108   1.422       .  A
C107        C113   1.564       .  S
C108        C244   1.487       .  S
C109        N110   1.379       .  A
C109        N114   1.382       .  A
N110        C111   1.382       .  A
C111        N112   1.379       .  A
N112        C113   1.382       .  A
C113        N114   1.379       .  A
C115        N116   1.382       .  A
C115        N120   1.378       .  A
N116        C117   1.379       .  A
C117        N118   1.382       .  A
N118        C119   1.379       .  A
C119        N120   1.381       .  A
O121       Cu129   2.056       .  S
O121        C131   1.286       .  A
O122      Cu1281   2.052       .  S
O122        C132   1.285       .  A
O123      Cu1281   2.040       .  S
O123        C133   1.279       .  A
O124       Cu129   2.041       .  S
O124        C134   1.279       .  A
O125       Cu130   1.914       .  S
O125        C134   1.261       .  A
O126      Cu1282   1.915       .  S
O126        C133   1.261       .  A
O127      Cu1282   1.934       .  S
O127        C132   1.259       .  A
O128       Cu130   1.934       .  S
O128        C131   1.259       .  A
Cu129      O1274   2.056   1_455  S
Cu129      O1275   2.040   1_455  S
Cu129      Cu130   2.304       .  S
Cu130      O1278   1.913   1_455  S
Cu130      O1279   1.935   1_455  S
O135       Cu719   2.055       .  S
O135        C145   1.286       .  A
O136       Cu143   2.055       .  S
O136        C146   1.286       .  A
O137       Cu143   2.041       .  S
O137        C147   1.279       .  A
O138       Cu719   2.043       .  S
O138        C148   1.279       .  A
O139       Cu720   1.916       .  S
O139        C148   1.261       .  A
O140       Cu144   1.914       .  S
O140        C147   1.261       .  A
O141       Cu144   1.935       .  S
O141        C146   1.259       .  A
O142       Cu720   1.934       .  S
O142        C145   1.259       .  A
Cu143       O711   2.054       .  S
Cu143       O714   2.041       .  S
Cu143      Cu144   2.305       .  S
Cu144       O715   1.914       .  S
Cu144       O718   1.935       .  S
O149       Cu157   2.053       .  S
O149        C159   1.286       .  A
O150       Cu445   2.051       .  S
O150        C160   1.285       .  A
O151       Cu445   2.040       .  S
O151        C161   1.279       .  A
O152       Cu157   2.040       .  S
O152        C162   1.279       .  A
O153       Cu158   1.915       .  S
O153        C162   1.261       .  A
O154       Cu446   1.919       .  S
O154        C161   1.262       .  A
O155       Cu446   1.935       .  S
O155        C160   1.259       .  A
O156       Cu158   1.935       .  S
O156        C159   1.259       .  A
Cu157       O438   2.053   1_554  S
Cu157       O439   2.041   1_554  S
Cu157      Cu158   2.303       .  S
Cu158       O442   1.915   1_554  S
Cu158       O443   1.933   1_554  S
O163       Cu171   2.054   1_545  S
O163        C173   1.285       .  A
O164       Cu747   2.054       .  S
O164        C174   1.286       .  A
O165       Cu747   2.042       .  S
O165        C175   1.279       .  A
O166       Cu171   2.042   1_545  S
O166        C176   1.279       .  A
O167       Cu172   1.917       .  S
O167        C176   1.262       .  A
O168       Cu748   1.915       .  S
O168        C175   1.261       .  A
O169       Cu748   1.933       .  S
O169        C174   1.259       .  A
O170       Cu172   1.934       .  S
O170        C173   1.259       .  A
Cu171       O740   2.052       .  S
Cu171       O741   2.041       .  S
Cu171      Cu172   2.304   1_565  S
Cu172       O744   1.916   1_545  S
Cu172       O745   1.935   1_545  S
O177      Cu1337   2.053       .  S
O177        C187   1.285       .  A
O178       Cu185   2.054       .  S
O178        C188   1.286       .  A
O179       Cu185   2.042       .  S
O179        C189   1.279       .  A
O180      Cu1337   2.039       .  S
O180        C190   1.279       .  A
O181      Cu1338   1.914       .  S
O181        C190   1.261       .  A
O182       Cu186   1.915       .  S
O182        C189   1.261       .  A
O183       Cu186   1.935       .  S
O183        C188   1.259       .  A
O184      Cu1338   1.932       .  S
O184        C187   1.259       .  A
Cu185      O1329   2.054   1_455  S
Cu185      O1332   2.042   1_455  S
Cu185      Cu186   2.304       .  S
Cu186      O1333   1.916   1_455  S
Cu186      O1336   1.934   1_455  S
O191       Cu199   1.915       .  S
O191        C201   1.261       .  A
O192       Cu487   1.919       .  S
O192        C202   1.262       .  A
O193       Cu487   1.936       .  S
O193        C203   1.260       .  A
O194       Cu199   1.933       .  S
O194        C204   1.259       .  A
O195       Cu200   2.053       .  S
O195        C204   1.286       .  A
O196       Cu488   2.051       .  S
O196        C203   1.285       .  A
O197       Cu488   2.038       .  S
O197        C202   1.279       .  A
O198       Cu200   2.041       .  S
O198        C201   1.279       .  A
Cu199       O480   1.915   1_554  S
Cu199       O481   1.936   1_554  S
Cu199      Cu200   2.302       .  S
Cu200       O484   2.053   1_554  S
Cu200       O485   2.040   1_554  S
O205       Cu501   1.918       .  S
O205        C215   1.262       .  A
O206       Cu213   1.916       .  S
O206        C216   1.261       .  A
O207       Cu213   1.933       .  S
O207        C217   1.259       .  A
O208       Cu501   1.937       .  S
O208        C218   1.260       .  A
O209       Cu502   2.052       .  S
O209        C218   1.285       .  A
O210       Cu214   2.053       .  S
O210        C217   1.285       .  A
O211       Cu214   2.041       .  S
O211        C216   1.279       .  A
O212       Cu502   2.039       .  S
O212        C215   1.279       .  A
Cu213       O493   1.915   1_554  S
Cu213       O496   1.936   1_554  S
Cu213      Cu214   2.302       .  S
Cu214       O497   2.053   1_554  S
Cu214       O500   2.040   1_554  S
O219       Cu227   2.056       .  S
O219        C229   1.286       .  A
O220       Cu803   2.054   1_545  S
O220        C230   1.286       .  A
O221       Cu803   2.041   1_545  S
O221        C231   1.279       .  A
O222       Cu227   2.043       .  S
O222        C232   1.280       .  A
O223       Cu228   1.916       .  S
O223        C232   1.261       .  A
O224       Cu804   1.917   1_545  S
O224        C231   1.261       .  A
O225       Cu804   1.936   1_545  S
O225        C230   1.260       .  A
O226       Cu228   1.933       .  S
O226        C229   1.259       .  A
Cu227       O796   2.056       .  S
Cu227       O797   2.043       .  S
Cu227      Cu228   2.301       .  S
Cu228       O800   1.915       .  S
Cu228       O801   1.934       .  S
O233       Cu241   1.914       .  S
O233        C243   1.261       .  A
O234      Cu1393   1.915       .  S
O234        C244   1.261       .  A
O235      Cu1393   1.933       .  S
O235        C245   1.259       .  A
O236       Cu241   1.934       .  S
O236        C246   1.259       .  A
O237       Cu242   2.054       .  S
O237        C246   1.286       .  A
O238      Cu1394   2.052       .  S
O238        C245   1.285       .  A
O239      Cu1394   2.039       .  S
O239        C244   1.279       .  A
O240       Cu242   2.041       .  S
O240        C243   1.279       .  A
Cu241      O1386   1.914   1_455  S
Cu241      O1387   1.933   1_455  S
Cu241      Cu242   2.304       .  S
Cu242      O1390   2.053   1_455  S
Cu242      O1391   2.041   1_455  S
O247      Cu1407   1.914       .  S
O247        C257   1.261       .  A
O248       Cu255   1.915       .  S
O248        C258   1.261       .  A
O249       Cu255   1.934       .  S
O249        C259   1.259       .  A
O250      Cu1407   1.934       .  S
O250        C260   1.259       .  A
O251      Cu1408   2.052       .  S
O251        C260   1.285       .  A
O252       Cu256   2.054       .  S
O252        C259   1.286       .  A
O253       Cu256   2.041       .  S
O253        C258   1.279       .  A
O254      Cu1408   2.039       .  S
O254        C257   1.279       .  A
Cu255      O1399   1.914   1_455  S
Cu255      O1402   1.932   1_455  S
Cu255      Cu256   2.303       .  S
Cu256      O1403   2.054   1_455  S
Cu256      O1406   2.041   1_455  S
O261       Cu845   2.053       .  S
O261        C271   1.285       .  A
O262       Cu269   2.054       .  S
O262        C272   1.286       .  A
O263       Cu269   2.041       .  S
O263        C273   1.279       .  A
O264       Cu845   2.042       .  S
O264        C274   1.279       .  A
O265       Cu270   1.919       .  S
O265        C274   1.262       .  A
O266       Cu846   1.915       .  S
O266        C273   1.261       .  A
O267       Cu846   1.934       .  S
O267        C272   1.259       .  A
O268       Cu270   1.935       .  S
O268        C271   1.259       .  A
Cu269       O837   2.055   1_545  S
Cu269       O840   2.042   1_545  S
Cu269      Cu846   2.301       .  S
Cu270       O842   1.918       .  S
Cu270       O843   1.933       .  S
Cu270      Cu845   2.304       .  S
O275       Cu571   2.053       .  S
O275        C285   1.285       .  A
O276       Cu283   2.052       .  S
O276        C286   1.285       .  A
O277       Cu283   2.041       .  S
O277        C287   1.279       .  A
O278       Cu571   2.038       .  S
O278        C288   1.279       .  A
O279       Cu572   1.917       .  S
O279        C288   1.262       .  A
O280       Cu284   1.917       .  S
O280        C287   1.262       .  A
O281       Cu284   1.934       .  S
O281        C286   1.259       .  A
O282       Cu572   1.936       .  S
O282        C285   1.259       .  A
Cu283       O563   2.051   1_554  S
Cu283       O566   2.041   1_554  S
Cu283      Cu284   2.303       .  S
Cu284       O567   1.917   1_554  S
Cu284       O570   1.932   1_554  S
C289        C290   1.456       .  A
C289        C294   1.422       .  A
C289        C421   1.487       .  S
C290        C291   1.412       .  A
C290        C475   1.472       .  S
C291        C292   1.422       .  A
C291        C295   1.565       .  S
C292        C293   1.457       .  A
C292        C503   1.488       .  S
C293        C294   1.412       .  A
C293        C448   1.472       .  S
C294        C407   1.564       .  S
C295        N296   1.378       .  A
C295        N300   1.382       .  A
N296        C297   1.382       .  A
C297        C302   1.564       .  S
C297        N298   1.378       .  A
N298        C299   1.381       .  A
C299        C381   1.565       .  S
C299        N300   1.379       .  A
C301        C302   1.413       .  A
C301        C306   1.456       .  A
C301        C506   1.474       .  S
C302        C303   1.423       .  A
C303        C304   1.457       .  A
C303        C436   1.489       .  S
C304        C305   1.414       .  A
C304        C461   1.474       .  S
C305        C306   1.424       .  A
C305        C317   1.565       .  S
C306        C576   1.489       .  S
C307        C308   1.422       .  A
C307        C312   1.456       .  A
C307        C490   1.488       .  S
C308        C309   1.413       .  A
C308        C327   1.566       .  S
C309        C310   1.459       .  A
C309        C419   1.473       .  S
C310        C311   1.421       .  A
C310        C477   1.487       .  S
C311        C312   1.413       .  A
C311        C313   1.565       .  S
C312        C573   1.471       .  S
C313        N314   1.380       .  A
C313        N318   1.381       .  A
N314        C315   1.382       .  A
C315        C368   1.566       .  S
C315        N316   1.379       .  A
N316        C317   1.382       .  A
C317        N318   1.378       .  A
C319        C320   1.413       .  A
C319        C324   1.457       .  A
C319        C434   1.475       .  S
C320        C321   1.423       .  A
C320        C403   1.564       .  S
C321        C322   1.456       .  A
C321        C449   1.488       .  S
C322        C323   1.413       .  A
C322        C491   1.474       .  S
C323        C324   1.424       .  A
C323        C329   1.565       .  S
C324        C463   1.488       .  S
C325        C338   1.564       .  S
C325        N326   1.379       .  A
C325        N330   1.381       .  A
N326        C327   1.382       .  A
C327        N328   1.379       .  A
N328        C329   1.382       .  A
C329        N330   1.378       .  A
C331        C332   1.412       .  A
C331        C336   1.455       .  A
C331        C447   1.473       .  S
C332        C333   1.423       .  A
C332        C399   1.563       .  S
C333        C334   1.456       .  A
C333        C520   1.488       .  S
C334        C335   1.413       .  A
C334        C559   1.474       .  S
C335        C336   1.424       .  A
C335        C343   1.564       .  S
C336        C489   1.489       .  S
C337        C338   1.413       .  A
C337        C342   1.457       .  A
C337        C462   1.474       .  S
C338        C339   1.422       .  A
C339        C340   1.458       .  A
C339        C422   1.488       .  S
C340        C341   1.414       .  A
C340        C534   1.475       .  S
C341        C342   1.423       .  A
C341        C347   1.566       .  S
C342        C562   1.488       .  S
C343        N344   1.378       .  A
C343        N348   1.382       .  A
N344        C345   1.381       .  A
C345        C350   1.564       .  S
C345        N346   1.380       .  A
N346        C347   1.382       .  A
C347        N348   1.379       .  A
C349        C350   1.412       .  A
C349        C354   1.455       .  A
C349        C492   1.472       .  S
C350        C351   1.422       .  A
C351        C352   1.459       .  A
C351        C531   1.487       .  S
C352        C353   1.413       .  A
C352        C547   1.474       .  S
C353        C354   1.422       .  A
C353        C361   1.565       .  S
C354        C575   1.487       .  S
C355        C356   1.424       .  A
C355        C360   1.455       .  A
C355        C504   1.488       .  S
C356        C357   1.413       .  A
C356        C387   1.564       .  S
C357        C358   1.457       .  A
C357        C518   1.475       .  S
C358        C359   1.424       .  A
C358        C561   1.488       .  S
C359        C360   1.413       .  A
C359        C363   1.564       .  S
C360        C574   1.473       .  S
C361        N362   1.379       .  A
C361        N366   1.382       .  A
N362        C363   1.382       .  A
C363        N364   1.378       .  A
N364        C365   1.382       .  A
C365        C371   1.565       .  S
C365        N366   1.380       .  A
C367        C368   1.423       .  A
C367        C372   1.457       .  A
C367        C464   1.489       .  S
C368        C369   1.414       .  A
C369        C370   1.458       .  A
C369        C476   1.475       .  S
C370        C371   1.422       .  A
C370        C546   1.487       .  S
C371        C372   1.413       .  A
C372        C560   1.473       .  S
C373        C374   1.456       .  A
C373        C378   1.422       .  A
C373        C545   1.487       .  S
C374        C375   1.412       .  A
C374        C533   1.472       .  S
C375        C376   1.423       .  A
C375        C397   1.564       .  S
C376        C377   1.455       .  A
C376        C450   1.488       .  S
C377        C378   1.412       .  A
C377        C505   1.472       .  S
C378        C385   1.564       .  S
C379        C380   1.457       .  A
C379        C384   1.423       .  A
C379        C519   1.488       .  S
C380        C381   1.412       .  A
C380        C433   1.472       .  S
C381        C382   1.422       .  A
C382        C383   1.456       .  A
C382        C478   1.487       .  S
C383        C384   1.413       .  A
C383        C548   1.473       .  S
C384        C389   1.564       .  S
C385        N386   1.381       .  A
C385        N390   1.379       .  A
N386        C387   1.378       .  A
C387        N388   1.382       .  A
N388        C389   1.379       .  A
C389        N390   1.382       .  A
C391        C392   1.412       .  A
C391        C396   1.456       .  A
C391        C420   1.473       .  S
C392        C393   1.423       .  A
C392        C405   1.564       .  S
C393        C394   1.457       .  A
C393        C435   1.489       .  S
C394        C395   1.413       .  A
C394        C517   1.472       .  S
C395        C396   1.422       .  A
C395        C401   1.565       .  S
C396        C532   1.486       .  S
C397        N398   1.378       .  A
C397        N402   1.382       .  A
N398        C399   1.381       .  A
C399        N400   1.378       .  A
N400        C401   1.381       .  A
C401        N402   1.379       .  A
C403        N404   1.381       .  A
C403        N408   1.379       .  A
N404        C405   1.378       .  A
C405        N406   1.382       .  A
N406        C407   1.378       .  A
C407        N408   1.381       .  A
O409       Cu417   2.055       .  S
O409        C419   1.286       .  A
O410      Cu1569   2.052       .  S
O410        C420   1.285       .  A
O411      Cu1569   2.039       .  S
O411        C421   1.279       .  A
O412       Cu417   2.046       .  S
O412        C422   1.280       .  A
O413       Cu418   1.910       .  S
O413        C422   1.260       .  A
O414      Cu1570   1.913       .  S
O414        C421   1.261       .  A
O415      Cu1570   1.932       .  S
O415        C420   1.259       .  A
O416       Cu418   1.926       .  S
O416        C419   1.258       .  A
Cu417      O1562   2.055   1_455  S
Cu417      O1563   2.045   1_455  S
Cu417      Cu418   2.310       .  S
Cu418      O1566   1.909   1_455  S
Cu418      O1567   1.927   1_455  S
O423      Cu1007   2.054       .  S
O423        C433   1.286       .  A
O424       Cu431   2.054       .  S
O424        C434   1.286       .  A
O425       Cu431   2.042       .  S
O425        C435   1.279       .  A
O426      Cu1007   2.043       .  S
O426        C436   1.279       .  A
O427      Cu1008   1.916       .  S
O427        C436   1.261       .  A
O428       Cu432   1.918       .  S
O428        C435   1.262       .  A
O429       Cu432   1.936       .  S
O429        C434   1.260       .  A
O430      Cu1008   1.932       .  S
O430        C433   1.259       .  A
Cu431       O999   2.052       .  S
Cu431      O1002   2.041       .  S
Cu431      Cu432   2.304       .  S
Cu432      O1003   1.917       .  S
Cu432      O1006   1.932       .  S
O437       Cu445   2.052       .  S
O437        C447   1.285       .  A
O438        C448   1.285       .  A
O439        C449   1.279       .  A
O440       Cu445   2.039       .  S
O440        C450   1.279       .  A
O441       Cu446   1.918       .  S
O441        C450   1.262       .  A
O442        C449   1.261       .  A
O443        C448   1.259       .  A
O444       Cu446   1.937       .  S
O444        C447   1.260       .  A
Cu445      Cu446   2.299       .  S
O451       Cu459   2.054   1_545  S
O451        C461   1.285       .  A
O452      Cu1035   2.054       .  S
O452        C462   1.286       .  A
O453      Cu1035   2.041       .  S
O453        C463   1.279       .  A
O454       Cu459   2.042   1_545  S
O454        C464   1.279       .  A
O455       Cu460   1.917   1_545  S
O455        C464   1.261       .  A
O456      Cu1036   1.915       .  S
O456        C463   1.261       .  A
O457      Cu1036   1.934       .  S
O457        C462   1.259       .  A
O458       Cu460   1.936   1_545  S
O458        C461   1.259       .  A
Cu459      O1028   2.053       .  S
Cu459      O1029   2.042       .  S
Cu459      Cu460   2.303       .  S
Cu460      O1032   1.917       .  S
Cu460      O1033   1.933       .  S
O465      Cu1625   2.052       .  S
O465        C475   1.285       .  A
O466       Cu473   2.056       .  S
O466        C476   1.286       .  A
O467       Cu473   2.045       .  S
O467        C477   1.280       .  A
O468      Cu1625   2.039       .  S
O468        C478   1.279       .  A
O469      Cu1626   1.914       .  S
O469        C478   1.261       .  A
O470       Cu474   1.909       .  S
O470        C477   1.259       .  A
O471       Cu474   1.929       .  S
O471        C476   1.258       .  A
O472      Cu1626   1.931       .  S
O472        C475   1.259       .  A
Cu473      O1617   2.055   1_455  S
Cu473      O1620   2.045   1_455  S
Cu473      Cu474   2.311       .  S
Cu474      O1621   1.908   1_455  S
Cu474      O1624   1.926   1_455  S
O479       Cu487   1.919       .  S
O479        C489   1.262       .  A
O480        C490   1.261       .  A
O481        C491   1.260       .  A
O482       Cu487   1.936       .  S
O482        C492   1.260       .  A
O483       Cu488   2.050       .  S
O483        C492   1.285       .  A
O484        C491   1.285       .  A
O485        C490   1.279       .  A
O486       Cu488   2.038       .  S
O486        C489   1.278       .  A
Cu487      Cu488   2.301       .  S
O493        C503   1.261       .  A
O494       Cu501   1.918       .  S
O494        C504   1.262       .  A
O495       Cu501   1.935       .  S
O495        C505   1.259       .  A
O496        C506   1.259       .  A
O497        C506   1.285       .  A
O498       Cu502   2.051       .  S
O498        C505   1.285       .  A
O499       Cu502   2.039       .  S
O499        C504   1.279       .  A
O500        C503   1.279       .  A
Cu501      Cu502   2.300       .  S
O507       Cu515   2.053       .  S
O507        C517   1.285       .  A
O508      Cu1091   2.055   1_545  S
O508        C518   1.286       .  A
O509      Cu1091   2.042   1_545  S
O509        C519   1.279       .  A
O510       Cu515   2.042       .  S
O510        C520   1.279       .  A
O511       Cu516   1.916       .  S
O511        C520   1.261       .  A
O512      Cu1092   1.916   1_545  S
O512        C519   1.261       .  A
O513      Cu1092   1.935   1_545  S
O513        C518   1.259       .  A
O514       Cu516   1.932       .  S
O514        C517   1.259       .  A
Cu515      O1084   2.054       .  S
Cu515      O1085   2.043       .  S
Cu515      Cu516   2.302       .  S
Cu516      O1088   1.917       .  S
Cu516      O1089   1.935       .  S
O521       Cu529   1.909       .  S
O521        C531   1.259       .  A
O522      Cu1681   1.912       .  S
O522        C532   1.261       .  A
O523      Cu1681   1.931       .  S
O523        C533   1.259       .  A
O524       Cu529   1.929       .  S
O524        C534   1.258       .  A
O525       Cu530   2.056       .  S
O525        C534   1.286       .  A
O526      Cu1682   2.053       .  S
O526        C533   1.286       .  A
O527      Cu1682   2.039       .  S
O527        C532   1.279       .  A
O528       Cu530   2.046       .  S
O528        C531   1.280       .  A
Cu529      O1674   1.910   1_455  S
Cu529      O1675   1.927   1_455  S
Cu529      Cu530   2.311       .  S
Cu530      O1678   2.056   1_455  S
Cu530      O1679   2.047   1_455  S
O535      Cu1695   1.913       .  S
O535        C545   1.261       .  A
O536       Cu543   1.908       .  S
O536        C546   1.259       .  A
O537       Cu543   1.926       .  S
O537        C547   1.258       .  A
O538      Cu1695   1.933       .  S
O538        C548   1.259       .  A
O539      Cu1696   2.052       .  S
O539        C548   1.285       .  A
O540       Cu544   2.058       .  S
O540        C547   1.286       .  A
O541       Cu544   2.046       .  S
O541        C546   1.280       .  A
O542      Cu1696   2.040       .  S
O542        C545   1.279       .  A
Cu543      O1687   1.907   1_455  S
Cu543      O1690   1.929   1_455  S
Cu543      Cu544   2.311       .  S
Cu544      O1691   2.057   1_455  S
Cu544      O1694   2.045   1_455  S
O549      Cu1133   2.054       .  S
O549        C559   1.286       .  A
O550       Cu557   2.053       .  S
O550        C560   1.285       .  A
O551       Cu557   2.042       .  S
O551        C561   1.279       .  A
O552      Cu1133   2.041       .  S
O552        C562   1.279       .  A
O553       Cu558   1.915       .  S
O553        C562   1.261       .  A
O554      Cu1134   1.915       .  S
O554        C561   1.261       .  A
O555      Cu1134   1.934       .  S
O555        C560   1.259       .  A
O556       Cu558   1.935       .  S
O556        C559   1.259       .  A
Cu557      O1125   2.054   1_545  S
Cu557      O1128   2.043   1_545  S
Cu557     Cu1134   2.303       .  S
Cu558      O1130   1.915       .  S
Cu558      O1131   1.935       .  S
Cu558     Cu1133   2.303       .  S
O563        C573   1.285       .  A
O564       Cu571   2.053       .  S
O564        C574   1.285       .  A
O565       Cu571   2.037       .  S
O565        C575   1.279       .  A
O566        C576   1.279       .  A
O567        C576   1.262       .  A
O568       Cu572   1.916       .  S
O568        C575   1.262       .  A
O569       Cu572   1.938       .  S
O569        C574   1.260       .  A
O570        C573   1.259       .  A
Cu571      Cu572   2.299       .  S
C577        C578   1.457       .  A
C577        C582   1.422       .  A
C577        C709   1.488       .  S
C578        C579   1.412       .  A
C578        C763   1.472       .  S
C579        C580   1.422       .  A
C579        C583   1.564       .  S
C580        C581   1.456       .  A
C580        C791   1.489       .  S
C581        C582   1.413       .  A
C581        C736   1.472       .  S
C582        C695   1.564       .  S
C583        N584   1.378       .  A
C583        N588   1.382       .  A
N584        C585   1.381       .  A
C585        C590   1.563       .  S
C585        N586   1.379       .  A
N586        C587   1.381       .  A
C587        C669   1.565       .  S
C587        N588   1.379       .  A
C589        C590   1.412       .  A
C589        C594   1.456       .  A
C589        C794   1.473       .  S
C590        C591   1.422       .  A
C591        C592   1.457       .  A
C591        C724   1.487       .  S
C592        C593   1.413       .  A
C592        C749   1.474       .  S
C593        C594   1.424       .  A
C593        C605   1.565       .  S
C594        C864   1.488       .  S
C595        C596   1.423       .  A
C595        C600   1.456       .  A
C595        C778   1.489       .  S
C596        C597   1.413       .  A
C596        C615   1.566       .  S
C597        C598   1.458       .  A
C597        C707   1.475       .  S
C598        C599   1.423       .  A
C598        C765   1.489       .  S
C599        C600   1.413       .  A
C599        C601   1.564       .  S
C600        C861   1.473       .  S
C601        N602   1.379       .  A
C601        N606   1.382       .  A
N602        C603   1.382       .  A
C603        C656   1.565       .  S
C603        N604   1.379       .  A
N604        C605   1.382       .  A
C605        N606   1.378       .  A
C607        C608   1.413       .  A
C607        C612   1.456       .  A
C607        C722   1.474       .  S
C608        C609   1.423       .  A
C608        C691   1.564       .  S
C609        C610   1.456       .  A
C609        C737   1.489       .  S
C610        C611   1.413       .  A
C610        C779   1.473       .  S
C611        C612   1.423       .  A
C611        C617   1.564       .  S
C612        C751   1.488       .  S
C613        C626   1.566       .  S
C613        N614   1.380       .  A
C613        N618   1.382       .  A
N614        C615   1.383       .  A
C615        N616   1.378       .  A
N616        C617   1.381       .  A
C617        N618   1.378       .  A
C619        C620   1.412       .  A
C619        C624   1.455       .  A
C619        C735   1.473       .  S
C620        C621   1.423       .  A
C620        C687   1.563       .  S
C621        C622   1.456       .  A
C621        C808   1.488       .  S
C622        C623   1.413       .  A
C622        C847   1.474       .  S
C623        C624   1.424       .  A
C623        C631   1.565       .  S
C624        C777   1.488       .  S
C625        C626   1.414       .  A
C625        C630   1.457       .  A
C625        C750   1.473       .  S
C626        C627   1.422       .  A
C627        C628   1.458       .  A
C627        C710   1.488       .  S
C628        C629   1.413       .  A
C628        C822   1.475       .  S
C629        C630   1.422       .  A
C629        C635   1.565       .  S
C630        C850   1.489       .  S
C631        N632   1.378       .  A
C631        N636   1.382       .  A
N632        C633   1.381       .  A
C633        C638   1.564       .  S
C633        N634   1.379       .  A
N634        C635   1.382       .  A
C635        N636   1.379       .  A
C637        C638   1.412       .  A
C637        C642   1.455       .  A
C637        C780   1.472       .  S
C638        C639   1.422       .  A
C639        C640   1.458       .  A
C639        C819   1.488       .  S
C640        C641   1.413       .  A
C640        C835   1.474       .  S
C641        C642   1.423       .  A
C641        C649   1.566       .  S
C642        C863   1.488       .  S
C643        C644   1.423       .  A
C643        C648   1.455       .  A
C643        C792   1.488       .  S
C644        C645   1.413       .  A
C644        C675   1.563       .  S
C645        C646   1.456       .  A
C645        C806   1.474       .  S
C646        C647   1.424       .  A
C646        C849   1.489       .  S
C647        C648   1.413       .  A
C647        C651   1.564       .  S
C648        C862   1.472       .  S
C649        N650   1.379       .  A
C649        N654   1.382       .  A
N650        C651   1.382       .  A
C651        N652   1.378       .  A
N652        C653   1.381       .  A
C653        C659   1.565       .  S
C653        N654   1.380       .  A
C655        C656   1.422       .  A
C655        C660   1.456       .  A
C655        C752   1.490       .  S
C656        C657   1.414       .  A
C657        C658   1.458       .  A
C657        C764   1.474       .  S
C658        C659   1.422       .  A
C658        C834   1.489       .  S
C659        C660   1.413       .  A
C660        C848   1.471       .  S
C661        C662   1.456       .  A
C661        C666   1.421       .  A
C661        C833   1.487       .  S
C662        C663   1.411       .  A
C662        C821   1.471       .  S
C663        C664   1.422       .  A
C663        C685   1.564       .  S
C664        C665   1.456       .  A
C664        C738   1.487       .  S
C665        C666   1.412       .  A
C665        C793   1.471       .  S
C666        C673   1.564       .  S
C667        C668   1.457       .  A
C667        C672   1.423       .  A
C667        C807   1.489       .  S
C668        C669   1.413       .  A
C668        C721   1.474       .  S
C669        C670   1.422       .  A
C670        C671   1.456       .  A
C670        C766   1.487       .  S
C671        C672   1.412       .  A
C671        C836   1.473       .  S
C672        C677   1.565       .  S
C673        N674   1.381       .  A
C673        N678   1.379       .  A
N674        C675   1.378       .  A
C675        N676   1.381       .  A
N676        C677   1.378       .  A
C677        N678   1.382       .  A
C679        C680   1.413       .  A
C679        C684   1.456       .  A
C679        C708   1.472       .  S
C680        C681   1.423       .  A
C680        C693   1.565       .  S
C681        C682   1.457       .  A
C681        C723   1.489       .  S
C682        C683   1.413       .  A
C682        C805   1.472       .  S
C683        C684   1.422       .  A
C683        C689   1.564       .  S
C684        C820   1.488       .  S
C685        N686   1.378       .  A
C685        N690   1.382       .  A
N686        C687   1.381       .  A
C687        N688   1.378       .  A
N688        C689   1.381       .  A
C689        N690   1.379       .  A
C691        N692   1.382       .  A
C691        N696   1.378       .  A
N692        C693   1.379       .  A
C693        N694   1.382       .  A
N694        C695   1.379       .  A
C695        N696   1.381       .  A
O697       Cu705   2.056       .  S
O697        C707   1.286       .  A
O698      Cu1857   2.051       .  S
O698        C708   1.285       .  A
O699      Cu1857   2.042       .  S
O699        C709   1.279       .  A
O700       Cu705   2.045       .  S
O700        C710   1.280       .  A
O701       Cu706   1.911       .  S
O701        C710   1.260       .  A
O702      Cu1858   1.915       .  S
O702        C709   1.261       .  A
O703      Cu1858   1.932       .  S
O703        C708   1.259       .  A
O704       Cu706   1.931       .  S
O704        C707   1.259       .  A
Cu705      O1850   2.056   1_455  S
Cu705      O1851   2.045   1_455  S
Cu705      Cu706   2.308       .  S
Cu706      O1854   1.911   1_455  S
Cu706      O1855   1.931   1_455  S
O711        C721   1.286       .  A
O712       Cu719   2.055   1_565  S
O712        C722   1.286       .  A
O713       Cu719   2.043   1_565  S
O713        C723   1.280       .  A
O714        C724   1.279       .  A
O715        C724   1.261       .  A
O716       Cu720   1.916   1_565  S
O716        C723   1.261       .  A
O717       Cu720   1.935   1_565  S
O717        C722   1.259       .  A
O718        C721   1.259       .  A
Cu719      Cu720   2.302       .  S
O725       Cu733   2.053       .  S
O725        C735   1.286       .  A
O726      Cu1021   2.051       .  S
O726        C736   1.285       .  A
O727      Cu1021   2.040       .  S
O727        C737   1.279       .  A
O728       Cu733   2.037       .  S
O728        C738   1.279       .  A
O729       Cu734   1.915       .  S
O729        C738   1.261       .  A
O730      Cu1022   1.918       .  S
O730        C737   1.262       .  A
O731      Cu1022   1.935       .  S
O731        C736   1.260       .  A
O732       Cu734   1.937       .  S
O732        C735   1.260       .  A
Cu733      O1014   2.052   1_554  S
Cu733      O1015   2.038   1_554  S
Cu733      Cu734   2.299       .  S
Cu734      O1018   1.916   1_554  S
Cu734      O1019   1.933   1_554  S
O739       Cu747   2.054       .  S
O739        C749   1.286       .  A
O740        C750   1.285       .  A
O741        C751   1.279       .  A
O742       Cu747   2.042       .  S
O742        C752   1.280       .  A
O743       Cu748   1.916       .  S
O743        C752   1.261       .  A
O744        C751   1.261       .  A
O745        C750   1.259       .  A
O746       Cu748   1.934       .  S
O746        C749   1.259       .  A
Cu747      Cu748   2.303       .  S
O753      Cu1913   2.053       .  S
O753        C763   1.285       .  A
O754       Cu761   2.055       .  S
O754        C764   1.286       .  A
O755       Cu761   2.046       .  S
O755        C765   1.280       .  A
O756      Cu1913   2.041       .  S
O756        C766   1.280       .  A
O757      Cu1914   1.912       .  S
O757        C766   1.261       .  A
O758       Cu762   1.913       .  S
O758        C765   1.260       .  A
O759       Cu762   1.929       .  S
O759        C764   1.258       .  A
O760      Cu1914   1.931       .  S
O760        C763   1.259       .  A
Cu761      O1905   2.056   1_455  S
Cu761      O1908   2.046   1_455  S
Cu761      Cu762   2.308       .  S
Cu762      O1909   1.913   1_455  S
Cu762      O1912   1.930   1_455  S
O767       Cu775   1.917       .  S
O767        C777   1.262       .  A
O768      Cu1063   1.917       .  S
O768        C778   1.262       .  A
O769      Cu1063   1.936       .  S
O769        C779   1.259       .  A
O770       Cu775   1.935       .  S
O770        C780   1.259       .  A
O771       Cu776   2.050       .  S
O771        C780   1.285       .  A
O772      Cu1064   2.053       .  S
O772        C779   1.285       .  A
O773      Cu1064   2.040       .  S
O773        C778   1.279       .  A
O774       Cu776   2.038       .  S
O774        C777   1.279       .  A
Cu775      O1056   1.917   1_554  S
Cu775      O1057   1.937   1_554  S
Cu775      Cu776   2.302       .  S
Cu776      O1060   2.051   1_554  S
Cu776      O1061   2.037   1_554  S
O781      Cu1077   1.917       .  S
O781        C791   1.262       .  A
O782       Cu789   1.918       .  S
O782        C792   1.262       .  A
O783       Cu789   1.934       .  S
O783        C793   1.259       .  A
O784      Cu1077   1.935       .  S
O784        C794   1.259       .  A
O785      Cu1078   2.053       .  S
O785        C794   1.286       .  A
O786       Cu790   2.050       .  S
O786        C793   1.285       .  A
O787       Cu790   2.038       .  S
O787        C792   1.279       .  A
O788      Cu1078   2.040       .  S
O788        C791   1.279       .  A
Cu789      O1069   1.916   1_554  S
Cu789      O1072   1.938   1_554  S
Cu789      Cu790   2.302       .  S
Cu790      O1073   2.051   1_554  S
Cu790      O1076   2.037   1_554  S
O795       Cu803   2.053       .  S
O795        C805   1.285       .  A
O796        C806   1.286       .  A
O797        C807   1.280       .  A
O798       Cu803   2.041       .  S
O798        C808   1.279       .  A
O799       Cu804   1.917       .  S
O799        C808   1.262       .  A
O800        C807   1.261       .  A
O801        C806   1.259       .  A
O802       Cu804   1.933       .  S
O802        C805   1.259       .  A
Cu803      Cu804   2.304       .  S
O809       Cu817   1.911       .  S
O809        C819   1.260       .  A
O810      Cu1969   1.914       .  S
O810        C820   1.261       .  A
O811      Cu1969   1.929       .  S
O811        C821   1.258       .  A
O812       Cu817   1.930       .  S
O812        C822   1.258       .  A
O813       Cu818   2.056       .  S
O813        C822   1.286       .  A
O814      Cu1970   2.052       .  S
O814        C821   1.285       .  A
O815      Cu1970   2.043       .  S
O815        C820   1.280       .  A
O816       Cu818   2.045       .  S
O816        C819   1.280       .  A
Cu817      O1962   1.911   1_455  S
Cu817      O1963   1.928   1_455  S
Cu817      Cu818   2.309       .  S
Cu818      O1966   2.055   1_455  S
Cu818      O1967   2.045   1_455  S
O823      Cu1983   1.913       .  S
O823        C833   1.261       .  A
O824       Cu831   1.912       .  S
O824        C834   1.260       .  A
O825       Cu831   1.929       .  S
O825        C835   1.258       .  A
O826      Cu1983   1.932       .  S
O826        C836   1.259       .  A
O827      Cu1984   2.051       .  S
O827        C836   1.285       .  A
O828       Cu832   2.055       .  S
O828        C835   1.286       .  A
O829       Cu832   2.046       .  S
O829        C834   1.280       .  A
O830      Cu1984   2.040       .  S
O830        C833   1.279       .  A
Cu831      O1975   1.911   1_455  S
Cu831      O1978   1.930   1_455  S
Cu831      Cu832   2.308       .  S
Cu832      O1979   2.055   1_455  S
Cu832      O1982   2.046   1_455  S
O837        C847   1.286       .  A
O838       Cu845   2.051       .  S
O838        C848   1.285       .  A
O839       Cu845   2.042       .  S
O839        C849   1.279       .  A
O840        C850   1.279       .  A
O841       Cu846   1.915   1_565  S
O841        C850   1.261       .  A
O842        C849   1.262       .  A
O843        C848   1.259       .  A
O844       Cu846   1.935   1_565  S
O844        C847   1.259       .  A
O851      Cu1147   2.051       .  S
O851        C861   1.285       .  A
O852       Cu859   2.052       .  S
O852        C862   1.285       .  A
O853       Cu859   2.038       .  S
O853        C863   1.279       .  A
O854      Cu1147   2.039       .  S
O854        C864   1.279       .  A
O855      Cu1148   1.917       .  S
O855        C864   1.262       .  A
O856       Cu860   1.916       .  S
O856        C863   1.262       .  A
O857       Cu860   1.936       .  S
O857        C862   1.260       .  A
O858      Cu1148   1.937       .  S
O858        C861   1.260       .  A
Cu859      O1139   2.052   1_554  S
Cu859      O1142   2.039   1_554  S
Cu859      Cu860   2.299       .  S
Cu860      O1143   1.917   1_554  S
Cu860      O1146   1.934   1_554  S
C865        C866   1.456       .  A
C865        C870   1.422       .  A
C865        C997   1.487       .  S
C866        C867   1.412       .  A
C866       C1051   1.471       .  S
C867        C868   1.422       .  A
C867        C871   1.565       .  S
C868        C869   1.455       .  A
C868       C1079   1.487       .  S
C869        C870   1.411       .  A
C869       C1024   1.471       .  S
C870        C983   1.563       .  S
C871        N872   1.378       .  A
C871        N876   1.382       .  A
N872        C873   1.382       .  A
C873        C878   1.564       .  S
C873        N874   1.378       .  A
N874        C875   1.381       .  A
C875        C957   1.565       .  S
C875        N876   1.379       .  A
C877        C878   1.413       .  A
C877        C882   1.455       .  A
C877       C1082   1.473       .  S
C878        C879   1.424       .  A
C879        C880   1.456       .  A
C879       C1012   1.488       .  S
C880        C881   1.413       .  A
C880       C1037   1.474       .  S
C881        C882   1.424       .  A
C881        C893   1.564       .  S
C882       C1152   1.488       .  S
C883        C884   1.423       .  A
C883        C888   1.456       .  A
C883       C1066   1.488       .  S
C884        C885   1.413       .  A
C884        C903   1.566       .  S
C885        C886   1.458       .  A
C885        C995   1.474       .  S
C886        C887   1.422       .  A
C886       C1053   1.488       .  S
C887        C888   1.412       .  A
C887        C889   1.564       .  S
C888       C1149   1.472       .  S
C889        N890   1.379       .  A
C889        N894   1.381       .  A
N890        C891   1.382       .  A
C891        C944   1.565       .  S
C891        N892   1.379       .  A
N892        C893   1.382       .  A
C893        N894   1.378       .  A
C895        C896   1.412       .  A
C895        C900   1.457       .  A
C895       C1010   1.474       .  S
C896        C897   1.422       .  A
C896        C979   1.564       .  S
C897        C898   1.455       .  A
C897       C1025   1.488       .  S
C898        C899   1.413       .  A
C898       C1067   1.473       .  S
C899        C900   1.424       .  A
C899        C905   1.565       .  S
C900       C1039   1.488       .  S
C901        C914   1.565       .  S
C901        N902   1.379       .  A
C901        N906   1.382       .  A
N902        C903   1.382       .  A
C903        N904   1.379       .  A
N904        C905   1.382       .  A
C905        N906   1.378       .  A
C907        C908   1.413       .  A
C907        C912   1.456       .  A
C907       C1023   1.473       .  S
C908        C909   1.423       .  A
C908        C975   1.563       .  S
C909        C910   1.456       .  A
C909       C1096   1.488       .  S
C910        C911   1.413       .  A
C910       C1135   1.474       .  S
C911        C912   1.423       .  A
C911        C919   1.564       .  S
C912       C1065   1.489       .  S
C913        C914   1.413       .  A
C913        C918   1.457       .  A
C913       C1038   1.473       .  S
C914        C915   1.422       .  A
C915        C916   1.458       .  A
C915        C998   1.488       .  S
C916        C917   1.414       .  A
C916       C1110   1.474       .  S
C917        C918   1.423       .  A
C917        C923   1.565       .  S
C918       C1138   1.489       .  S
C919        N920   1.378       .  A
C919        N924   1.382       .  A
N920        C921   1.381       .  A
C921        C926   1.564       .  S
C921        N922   1.379       .  A
N922        C923   1.382       .  A
C923        N924   1.379       .  A
C925        C926   1.413       .  A
C925        C930   1.456       .  A
C925       C1068   1.473       .  S
C926        C927   1.423       .  A
C927        C928   1.458       .  A
C927       C1107   1.489       .  S
C928        C929   1.414       .  A
C928       C1123   1.474       .  S
C929        C930   1.423       .  A
C929        C937   1.566       .  S
C930       C1151   1.488       .  S
C931        C932   1.423       .  A
C931        C936   1.456       .  A
C931       C1080   1.489       .  S
C932        C933   1.413       .  A
C932        C963   1.564       .  S
C933        C934   1.457       .  A
C933       C1094   1.474       .  S
C934        C935   1.423       .  A
C934       C1137   1.488       .  S
C935        C936   1.413       .  A
C935        C939   1.565       .  S
C936       C1150   1.473       .  S
C937        N938   1.379       .  A
C937        N942   1.382       .  A
N938        C939   1.382       .  A
C939        N940   1.379       .  A
N940        C941   1.382       .  A
C941        C947   1.566       .  S
C941        N942   1.380       .  A
C943        C944   1.423       .  A
C943        C948   1.457       .  A
C943       C1040   1.489       .  S
C944        C945   1.413       .  A
C945        C946   1.458       .  A
C945       C1052   1.475       .  S
C946        C947   1.423       .  A
C946       C1122   1.488       .  S
C947        C948   1.413       .  A
C948       C1136   1.474       .  S
C949        C950   1.456       .  A
C949        C954   1.423       .  A
C949       C1121   1.488       .  S
C950        C951   1.412       .  A
C950       C1109   1.473       .  S
C951        C952   1.423       .  A
C951        C973   1.564       .  S
C952        C953   1.456       .  A
C952       C1026   1.488       .  S
C953        C954   1.412       .  A
C953       C1081   1.472       .  S
C954        C961   1.563       .  S
C955        C956   1.456       .  A
C955        C960   1.422       .  A
C955       C1095   1.490       .  S
C956        C957   1.413       .  A
C956       C1009   1.471       .  S
C957        C958   1.422       .  A
C958        C959   1.456       .  A
C958       C1054   1.488       .  S
C959        C960   1.413       .  A
C959       C1124   1.473       .  S
C960        C965   1.563       .  S
C961        N962   1.381       .  A
C961        N966   1.378       .  A
N962        C963   1.378       .  A
C963        N964   1.381       .  A
N964        C965   1.379       .  A
C965        N966   1.381       .  A
C967        C968   1.412       .  A
C967        C972   1.456       .  A
C967        C996   1.473       .  S
C968        C969   1.422       .  A
C968        C981   1.563       .  S
C969        C970   1.457       .  A
C969       C1011   1.489       .  S
C970        C971   1.413       .  A
C970       C1093   1.472       .  S
C971        C972   1.422       .  A
C971        C977   1.565       .  S
C972       C1108   1.487       .  S
C973        N974   1.378       .  A
C973        N978   1.382       .  A
N974        C975   1.381       .  A
C975        N976   1.379       .  A
N976        C977   1.381       .  A
C977        N978   1.379       .  A
C979        N980   1.381       .  A
C979        N984   1.378       .  A
N980        C981   1.378       .  A
C981        N982   1.381       .  A
N982        C983   1.378       .  A
C983        N984   1.381       .  A
O985       Cu993   2.055       .  S
O985        C995   1.286       .  A
O986      Cu2145   2.052       .  S
O986        C996   1.285       .  A
O987      Cu2145   2.039       .  S
O987        C997   1.279       .  A
O988       Cu993   2.044       .  S
O988        C998   1.280       .  A
O989       Cu994   1.913       .  S
O989        C998   1.261       .  A
O990      Cu2146   1.914       .  S
O990        C997   1.261       .  A
O991      Cu2146   1.933       .  S
O991        C996   1.259       .  A
O992       Cu994   1.931       .  S
O992        C995   1.258       .  A
Cu993      O2138   2.055   1_455  S
Cu993      O2139   2.044   1_455  S
Cu993      Cu994   2.307       .  S
Cu994      O2142   1.912   1_455  S
Cu994      O2143   1.933   1_455  S
O999       C1009   1.285       .  A
O1000     Cu1007   2.055   1_565  S
O1000      C1010   1.286       .  A
O1001     Cu1007   2.043   1_565  S
O1001      C1011   1.280       .  A
O1002      C1012   1.279       .  A
O1003      C1012   1.262       .  A
O1004     Cu1008   1.916   1_565  S
O1004      C1011   1.261       .  A
O1005     Cu1008   1.935   1_565  S
O1005      C1010   1.259       .  A
O1006      C1009   1.259       .  A
Cu1007    Cu1008   2.302       .  S
O1013     Cu1021   2.052       .  S
O1013      C1023   1.285       .  A
O1014      C1024   1.285       .  A
O1015      C1025   1.279       .  A
O1016     Cu1021   2.039       .  S
O1016      C1026   1.279       .  A
O1017     Cu1022   1.918       .  S
O1017      C1026   1.262       .  A
O1018      C1025   1.262       .  A
O1019      C1024   1.259       .  A
O1020     Cu1022   1.937       .  S
O1020      C1023   1.260       .  A
Cu1021    Cu1022   2.302       .  S
O1027     Cu1035   2.055       .  S
O1027      C1037   1.286       .  A
O1028      C1038   1.285       .  A
O1029      C1039   1.279       .  A
O1030     Cu1035   2.042       .  S
O1030      C1040   1.280       .  A
O1031     Cu1036   1.915       .  S
O1031      C1040   1.261       .  A
O1032      C1039   1.262       .  A
O1033      C1038   1.259       .  A
O1034     Cu1036   1.935       .  S
O1034      C1037   1.259       .  A
Cu1035    Cu1036   2.302       .  S
O1041     Cu2201   2.052       .  S
O1041      C1051   1.285       .  A
O1042     Cu1049   2.056       .  S
O1042      C1052   1.286       .  A
O1043     Cu1049   2.043       .  S
O1043      C1053   1.280       .  A
O1044     Cu2201   2.041       .  S
O1044      C1054   1.279       .  A
O1045     Cu2202   1.915       .  S
O1045      C1054   1.261       .  A
O1046     Cu1050   1.912       .  S
O1046      C1053   1.260       .  A
O1047     Cu1050   1.932       .  S
O1047      C1052   1.259       .  A
O1048     Cu2202   1.931       .  S
O1048      C1051   1.259       .  A
Cu1049     O2193   2.055   1_455  S
Cu1049     O2196   2.043   1_455  S
Cu1049    Cu1050   2.307       .  S
Cu1050     O2197   1.912   1_455  S
Cu1050     O2200   1.930   1_455  S
O1055     Cu1063   1.918       .  S
O1055      C1065   1.262       .  A
O1056      C1066   1.262       .  A
O1057      C1067   1.260       .  A
O1058     Cu1063   1.935       .  S
O1058      C1068   1.259       .  A
O1059     Cu1064   2.053       .  S
O1059      C1068   1.286       .  A
O1060      C1067   1.285       .  A
O1061      C1066   1.279       .  A
O1062     Cu1064   2.040       .  S
O1062      C1065   1.279       .  A
Cu1063    Cu1064   2.299       .  S
O1069      C1079   1.262       .  A
O1070     Cu1077   1.917       .  S
O1070      C1080   1.262       .  A
O1071     Cu1077   1.934       .  S
O1071      C1081   1.259       .  A
O1072      C1082   1.260       .  A
O1073      C1082   1.285       .  A
O1074     Cu1078   2.052       .  S
O1074      C1081   1.286       .  A
O1075     Cu1078   2.040       .  S
O1075      C1080   1.279       .  A
O1076      C1079   1.279       .  A
Cu1077    Cu1078   2.300       .  S
O1083     Cu1091   2.053       .  S
O1083      C1093   1.285       .  A
O1084      C1094   1.286       .  A
O1085      C1095   1.280       .  A
O1086     Cu1091   2.041       .  S
O1086      C1096   1.279       .  A
O1087     Cu1092   1.915       .  S
O1087      C1096   1.261       .  A
O1088      C1095   1.261       .  A
O1089      C1094   1.259       .  A
O1090     Cu1092   1.934       .  S
O1090      C1093   1.259       .  A
Cu1091    Cu1092   2.304       .  S
O1097     Cu1105   1.914       .  S
O1097      C1107   1.261       .  A
O1098     Cu2257   1.913       .  S
O1098      C1108   1.261       .  A
O1099     Cu2257   1.933       .  S
O1099      C1109   1.259       .  A
O1100     Cu1105   1.931       .  S
O1100      C1110   1.259       .  A
O1101     Cu1106   2.055       .  S
O1101      C1110   1.286       .  A
O1102     Cu2258   2.053       .  S
O1102      C1109   1.285       .  A
O1103     Cu2258   2.039       .  S
O1103      C1108   1.279       .  A
O1104     Cu1106   2.044       .  S
O1104      C1107   1.280       .  A
Cu1105     O2250   1.914   1_455  S
Cu1105     O2251   1.931   1_455  S
Cu1105    Cu1106   2.307       .  S
Cu1106     O2254   2.056   1_455  S
Cu1106     O2255   2.045   1_455  S
O1111     Cu2271   1.915       .  S
O1111      C1121   1.261       .  A
O1112     Cu1119   1.912       .  S
O1112      C1122   1.260       .  A
O1113     Cu1119   1.932       .  S
O1113      C1123   1.259       .  A
O1114     Cu2271   1.933       .  S
O1114      C1124   1.259       .  A
O1115     Cu2272   2.052       .  S
O1115      C1124   1.285       .  A
O1116     Cu1120   2.056       .  S
O1116      C1123   1.286       .  A
O1117     Cu1120   2.043       .  S
O1117      C1122   1.280       .  A
O1118     Cu2272   2.041       .  S
O1118      C1121   1.279       .  A
Cu1119     O2263   1.913   1_455  S
Cu1119     O2266   1.933   1_455  S
Cu1119    Cu1120   2.306       .  S
Cu1120     O2267   2.056   1_455  S
Cu1120     O2270   2.044   1_455  S
O1125      C1135   1.285       .  A
O1126     Cu1133   2.054       .  S
O1126      C1136   1.286       .  A
O1127     Cu1133   2.041       .  S
O1127      C1137   1.279       .  A
O1128      C1138   1.280       .  A
O1129     Cu1134   1.917   1_565  S
O1129      C1138   1.261       .  A
O1130      C1137   1.261       .  A
O1131      C1136   1.259       .  A
O1132     Cu1134   1.934   1_565  S
O1132      C1135   1.259       .  A
O1139      C1149   1.285       .  A
O1140     Cu1147   2.052       .  S
O1140      C1150   1.285       .  A
O1141     Cu1147   2.039       .  S
O1141      C1151   1.279       .  A
O1142      C1152   1.279       .  A
O1143      C1152   1.262       .  A
O1144     Cu1148   1.918       .  S
O1144      C1151   1.262       .  A
O1145     Cu1148   1.936       .  S
O1145      C1150   1.260       .  A
O1146      C1149   1.259       .  A
Cu1147    Cu1148   2.302       .  S
C1153      C1154   1.457       .  A
C1153      C1158   1.422       .  A
C1153      C1285   1.487       .  S
C1154      C1155   1.413       .  A
C1154      C1339   1.474       .  S
C1155      C1156   1.423       .  A
C1155      C1159   1.565       .  S
C1156      C1157   1.456       .  A
C1156      C1367   1.488       .  S
C1157      C1158   1.412       .  A
C1157      C1312   1.472       .  S
C1158      C1271   1.564       .  S
C1159      N1160   1.379       .  A
C1159      N1164   1.382       .  A
N1160      C1161   1.382       .  A
C1161      C1166   1.565       .  S
C1161      N1162   1.379       .  A
N1162      C1163   1.382       .  A
C1163      C1245   1.565       .  S
C1163      N1164   1.379       .  A
C1165      C1166   1.413       .  A
C1165      C1170   1.455       .  A
C1165      C1370   1.472       .  S
C1166      C1167   1.423       .  A
C1167      C1168   1.456       .  A
C1167      C1300   1.488       .  S
C1168      C1169   1.413       .  A
C1168      C1325   1.475       .  S
C1169      C1170   1.423       .  A
C1169      C1181   1.563       .  S
C1170      C1440   1.490       .  S
C1171      C1172   1.423       .  A
C1171      C1176   1.456       .  A
C1171      C1354   1.488       .  S
C1172      C1173   1.412       .  A
C1172      C1191   1.564       .  S
C1173      C1174   1.456       .  A
C1173      C1283   1.472       .  S
C1174      C1175   1.421       .  A
C1174      C1341   1.487       .  S
C1175      C1176   1.412       .  A
C1175      C1177   1.563       .  S
C1176      C1437   1.472       .  S
C1177      N1178   1.379       .  A
C1177      N1182   1.381       .  A
N1178      C1179   1.382       .  A
C1179      C1232   1.565       .  S
C1179      N1180   1.378       .  A
N1180      C1181   1.382       .  A
C1181      N1182   1.378       .  A
C1183      C1184   1.413       .  A
C1183      C1188   1.457       .  A
C1183      C1298   1.474       .  S
C1184      C1185   1.424       .  A
C1184      C1267   1.564       .  S
C1185      C1186   1.456       .  A
C1185      C1313   1.489       .  S
C1186      C1187   1.413       .  A
C1186      C1355   1.473       .  S
C1187      C1188   1.423       .  A
C1187      C1193   1.564       .  S
C1188      C1327   1.489       .  S
C1189      C1202   1.565       .  S
C1189      N1190   1.379       .  A
C1189      N1194   1.381       .  A
N1190      C1191   1.382       .  A
C1191      N1192   1.378       .  A
N1192      C1193   1.381       .  A
C1193      N1194   1.378       .  A
C1195      C1196   1.412       .  A
C1195      C1200   1.455       .  A
C1195      C1311   1.471       .  S
C1196      C1197   1.423       .  A
C1196      C1263   1.564       .  S
C1197      C1198   1.457       .  A
C1197      C1384   1.488       .  S
C1198      C1199   1.413       .  A
C1198      C1423   1.474       .  S
C1199      C1200   1.423       .  A
C1199      C1207   1.563       .  S
C1200      C1353   1.488       .  S
C1201      C1202   1.413       .  A
C1201      C1206   1.457       .  A
C1201      C1326   1.473       .  S
C1202      C1203   1.422       .  A
C1203      C1204   1.456       .  A
C1203      C1286   1.488       .  S
C1204      C1205   1.413       .  A
C1204      C1398   1.472       .  S
C1205      C1206   1.422       .  A
C1205      C1211   1.564       .  S
C1206      C1426   1.489       .  S
C1207      N1208   1.378       .  A
C1207      N1212   1.382       .  A
N1208      C1209   1.381       .  A
C1209      C1214   1.563       .  S
C1209      N1210   1.378       .  A
N1210      C1211   1.381       .  A
C1211      N1212   1.379       .  A
C1213      C1214   1.411       .  A
C1213      C1218   1.455       .  A
C1213      C1356   1.470       .  S
C1214      C1215   1.422       .  A
C1215      C1216   1.456       .  A
C1215      C1395   1.487       .  S
C1216      C1217   1.412       .  A
C1216      C1411   1.471       .  S
C1217      C1218   1.422       .  A
C1217      C1225   1.563       .  S
C1218      C1439   1.487       .  S
C1219      C1220   1.422       .  A
C1219      C1224   1.455       .  A
C1219      C1368   1.487       .  S
C1220      C1221   1.413       .  A
C1220      C1251   1.565       .  S
C1221      C1222   1.457       .  A
C1221      C1382   1.473       .  S
C1222      C1223   1.423       .  A
C1222      C1425   1.488       .  S
C1223      C1224   1.412       .  A
C1223      C1227   1.563       .  S
C1224      C1438   1.472       .  S
C1225      N1226   1.378       .  A
C1225      N1230   1.381       .  A
N1226      C1227   1.381       .  A
C1227      N1228   1.378       .  A
N1228      C1229   1.381       .  A
C1229      C1235   1.564       .  S
C1229      N1230   1.378       .  A
C1231      C1232   1.424       .  A
C1231      C1236   1.457       .  A
C1231      C1328   1.487       .  S
C1232      C1233   1.413       .  A
C1233      C1234   1.456       .  A
C1233      C1340   1.474       .  S
C1234      C1235   1.422       .  A
C1234      C1410   1.487       .  S
C1235      C1236   1.412       .  A
C1236      C1424   1.474       .  S
C1237      C1238   1.457       .  A
C1237      C1242   1.422       .  A
C1237      C1409   1.487       .  S
C1238      C1239   1.413       .  A
C1238      C1397   1.473       .  S
C1239      C1240   1.423       .  A
C1239      C1261   1.565       .  S
C1240      C1241   1.455       .  A
C1240      C1314   1.487       .  S
C1241      C1242   1.411       .  A
C1241      C1369   1.471       .  S
C1242      C1249   1.563       .  S
C1243      C1244   1.456       .  A
C1243      C1248   1.422       .  A
C1243      C1383   1.490       .  S
C1244      C1245   1.414       .  A
C1244      C1297   1.472       .  S
C1245      C1246   1.423       .  A
C1246      C1247   1.457       .  A
C1246      C1342   1.489       .  S
C1247      C1248   1.413       .  A
C1247      C1412   1.473       .  S
C1248      C1253   1.563       .  S
C1249      N1250   1.381       .  A
C1249      N1254   1.378       .  A
N1250      C1251   1.378       .  A
C1251      N1252   1.382       .  A
N1252      C1253   1.379       .  A
C1253      N1254   1.381       .  A
C1255      C1256   1.413       .  A
C1255      C1260   1.457       .  A
C1255      C1284   1.475       .  S
C1256      C1257   1.423       .  A
C1256      C1269   1.565       .  S
C1257      C1258   1.457       .  A
C1257      C1299   1.488       .  S
C1258      C1259   1.412       .  A
C1258      C1381   1.473       .  S
C1259      C1260   1.423       .  A
C1259      C1265   1.565       .  S
C1260      C1396   1.487       .  S
C1261      N1262   1.378       .  A
C1261      N1266   1.382       .  A
N1262      C1263   1.382       .  A
C1263      N1264   1.378       .  A
N1264      C1265   1.382       .  A
C1265      N1266   1.379       .  A
C1267      N1268   1.382       .  A
C1267      N1272   1.378       .  A
N1268      C1269   1.379       .  A
C1269      N1270   1.382       .  A
N1270      C1271   1.379       .  A
C1271      N1272   1.381       .  A
O1273     Cu1281   2.052       .  S
O1273      C1283   1.285       .  A
O1274      C1284   1.286       .  A
O1275      C1285   1.279       .  A
O1276     Cu1281   2.041       .  S
O1276      C1286   1.279       .  A
O1277     Cu1282   1.916       .  S
O1277      C1286   1.261       .  A
O1278      C1285   1.261       .  A
O1279      C1284   1.259       .  A
O1280     Cu1282   1.932       .  S
O1280      C1283   1.259       .  A
Cu1281    Cu1282   2.303       .  S
O1287     Cu1871   2.052       .  S
O1287      C1297   1.285       .  A
O1288     Cu1295   2.053       .  S
O1288      C1298   1.285       .  A
O1289     Cu1295   2.041       .  S
O1289      C1299   1.279       .  A
O1290     Cu1871   2.041       .  S
O1290      C1300   1.279       .  A
O1291     Cu1872   1.915       .  S
O1291      C1300   1.261       .  A
O1292     Cu1296   1.916       .  S
O1292      C1299   1.262       .  A
O1293     Cu1296   1.935       .  S
O1293      C1298   1.259       .  A
O1294     Cu1872   1.932       .  S
O1294      C1297   1.259       .  A
Cu1295     O1863   2.051       .  S
Cu1295     O1866   2.041       .  S
Cu1295    Cu1296   2.304       .  S
Cu1296     O1867   1.916       .  S
Cu1296     O1870   1.935       .  S
O1301     Cu1309   2.049       .  S
O1301      C1311   1.285       .  A
O1302     Cu1597   2.052       .  S
O1302      C1312   1.285       .  A
O1303     Cu1597   2.040       .  S
O1303      C1313   1.279       .  A
O1304     Cu1309   2.037       .  S
O1304      C1314   1.279       .  A
O1305     Cu1310   1.917       .  S
O1305      C1314   1.262       .  A
O1306     Cu1598   1.917       .  S
O1306      C1313   1.262       .  A
O1307     Cu1598   1.934       .  S
O1307      C1312   1.259       .  A
O1308     Cu1310   1.935       .  S
O1308      C1311   1.260       .  A
Cu1309     O1590   2.048   1_554  S
Cu1309     O1591   2.037   1_554  S
Cu1309    Cu1310   2.301       .  S
Cu1310     O1594   1.917   1_554  S
Cu1310     O1595   1.933   1_554  S
O1315     Cu1323   2.054       .  S
O1315      C1325   1.285       .  A
O1316     Cu1899   2.054       .  S
O1316      C1326   1.286       .  A
O1317     Cu1899   2.042       .  S
O1317      C1327   1.279       .  A
O1318     Cu1323   2.041       .  S
O1318      C1328   1.279       .  A
O1319     Cu1324   1.915       .  S
O1319      C1328   1.261       .  A
O1320     Cu1900   1.916       .  S
O1320      C1327   1.261       .  A
O1321     Cu1900   1.933       .  S
O1321      C1326   1.259       .  A
O1322     Cu1324   1.936       .  S
O1322      C1325   1.259       .  A
Cu1323     O1892   2.053   1_545  S
Cu1323     O1893   2.041   1_545  S
Cu1323    Cu1324   2.304       .  S
Cu1324     O1896   1.915   1_545  S
Cu1324     O1897   1.935   1_545  S
O1329      C1339   1.285       .  A
O1330     Cu1337   2.053       .  S
O1330      C1340   1.286       .  A
O1331     Cu1337   2.039       .  S
O1331      C1341   1.279       .  A
O1332      C1342   1.280       .  A
O1333      C1342   1.261       .  A
O1334     Cu1338   1.913       .  S
O1334      C1341   1.261       .  A
O1335     Cu1338   1.935       .  S
O1335      C1340   1.259       .  A
O1336      C1339   1.259       .  A
Cu1337    Cu1338   2.303       .  S
O1343     Cu1351   1.917       .  S
O1343      C1353   1.262       .  A
O1344     Cu1639   1.917       .  S
O1344      C1354   1.262       .  A
O1345     Cu1639   1.937       .  S
O1345      C1355   1.260       .  A
O1346     Cu1351   1.933       .  S
O1346      C1356   1.259       .  A
O1347     Cu1352   2.050       .  S
O1347      C1356   1.285       .  A
O1348     Cu1640   2.052       .  S
O1348      C1355   1.285       .  A
O1349     Cu1640   2.039       .  S
O1349      C1354   1.279       .  A
O1350     Cu1352   2.038       .  S
O1350      C1353   1.279       .  A
Cu1351     O1632   1.916   1_554  S
Cu1351     O1633   1.936   1_554  S
Cu1351    Cu1352   2.300       .  S
Cu1352     O1636   2.050   1_554  S
Cu1352     O1637   2.037   1_554  S
O1357     Cu1653   1.918       .  S
O1357      C1367   1.262       .  A
O1358     Cu1365   1.915       .  S
O1358      C1368   1.262       .  A
O1359     Cu1365   1.934       .  S
O1359      C1369   1.259       .  A
O1360     Cu1653   1.936       .  S
O1360      C1370   1.260       .  A
O1361     Cu1654   2.051       .  S
O1361      C1370   1.285       .  A
O1362     Cu1366   2.051       .  S
O1362      C1369   1.285       .  A
O1363     Cu1366   2.037       .  S
O1363      C1368   1.279       .  A
O1364     Cu1654   2.039       .  S
O1364      C1367   1.279       .  A
Cu1365     O1645   1.915   1_554  S
Cu1365     O1648   1.936   1_554  S
Cu1365    Cu1366   2.299       .  S
Cu1366     O1649   2.050   1_554  S
Cu1366     O1652   2.036   1_554  S
O1371     Cu1379   2.054       .  S
O1371      C1381   1.286       .  A
O1372     Cu1955   2.054   1_545  S
O1372      C1382   1.285       .  A
O1373     Cu1955   2.043   1_545  S
O1373      C1383   1.280       .  A
O1374     Cu1379   2.042       .  S
O1374      C1384   1.279       .  A
O1375     Cu1380   1.915       .  S
O1375      C1384   1.261       .  A
O1376     Cu1956   1.917       .  S
O1376      C1383   1.261       .  A
O1377     Cu1956   1.933       .  S
O1377      C1382   1.259       .  A
O1378     Cu1380   1.933       .  S
O1378      C1381   1.259       .  A
Cu1379     O1948   2.054       .  S
Cu1379     O1949   2.042       .  S
Cu1379    Cu1380   2.302       .  S
Cu1380     O1952   1.917       .  S
Cu1380     O1953   1.932       .  S
O1385     Cu1393   1.914       .  S
O1385      C1395   1.261       .  A
O1386      C1396   1.261       .  A
O1387      C1397   1.259       .  A
O1388     Cu1393   1.933       .  S
O1388      C1398   1.259       .  A
O1389     Cu1394   2.052       .  S
O1389      C1398   1.285       .  A
O1390      C1397   1.285       .  A
O1391      C1396   1.279       .  A
O1392     Cu1394   2.039       .  S
O1392      C1395   1.279       .  A
Cu1393    Cu1394   2.303       .  S
O1399      C1409   1.261       .  A
O1400     Cu1407   1.913       .  S
O1400      C1410   1.261       .  A
O1401     Cu1407   1.932       .  S
O1401      C1411   1.259       .  A
O1402      C1412   1.259       .  A
O1403      C1412   1.286       .  A
O1404     Cu1408   2.051       .  S
O1404      C1411   1.285       .  A
O1405     Cu1408   2.039       .  S
O1405      C1410   1.279       .  A
O1406      C1409   1.279       .  A
Cu1407    Cu1408   2.303       .  S
O1413     Cu1997   2.055       .  S
O1413      C1423   1.286       .  A
O1414     Cu1421   2.055       .  S
O1414      C1424   1.286       .  A
O1415     Cu1421   2.043       .  S
O1415      C1425   1.280       .  A
O1416     Cu1997   2.043       .  S
O1416      C1426   1.280       .  A
O1417     Cu1422   1.916       .  S
O1417      C1426   1.261       .  A
O1418     Cu1998   1.915       .  S
O1418      C1425   1.261       .  A
O1419     Cu1998   1.933       .  S
O1419      C1424   1.259       .  A
O1420     Cu1422   1.935       .  S
O1420      C1423   1.259       .  A
Cu1421     O1989   2.055   1_545  S
Cu1421     O1992   2.043   1_545  S
Cu1421    Cu1998   2.303       .  S
Cu1422     O1994   1.915       .  S
Cu1422     O1995   1.935       .  S
Cu1422    Cu1997   2.303       .  S
O1427     Cu1723   2.052       .  S
O1427      C1437   1.285       .  A
O1428     Cu1435   2.049       .  S
O1428      C1438   1.285       .  A
O1429     Cu1435   2.037       .  S
O1429      C1439   1.279       .  A
O1430     Cu1723   2.041       .  S
O1430      C1440   1.279       .  A
O1431     Cu1724   1.918       .  S
O1431      C1440   1.262       .  A
O1432     Cu1436   1.916       .  S
O1432      C1439   1.262       .  A
O1433     Cu1436   1.936       .  S
O1433      C1438   1.260       .  A
O1434     Cu1724   1.933       .  S
O1434      C1437   1.259       .  A
Cu1435     O1715   2.049   1_554  S
Cu1435     O1718   2.037   1_554  S
Cu1435    Cu1436   2.301       .  S
Cu1436     O1719   1.916   1_554  S
Cu1436     O1722   1.933   1_554  S
C1441      C1442   1.458       .  A
C1441      C1446   1.421       .  A
C1441      C1573   1.487       .  S
C1442      C1443   1.413       .  A
C1442      C1627   1.473       .  S
C1443      C1444   1.421       .  A
C1443      C1447   1.565       .  S
C1444      C1445   1.455       .  A
C1444      C1655   1.487       .  S
C1445      C1446   1.411       .  A
C1445      C1600   1.470       .  S
C1446      C1559   1.563       .  S
C1447      N1448   1.379       .  A
C1447      N1452   1.382       .  A
N1448      C1449   1.382       .  A
C1449      C1454   1.564       .  S
C1449      N1450   1.378       .  A
N1450      C1451   1.381       .  A
C1451      C1533   1.564       .  S
C1451      N1452   1.379       .  A
C1453      C1454   1.412       .  A
C1453      C1458   1.455       .  A
C1453      C1658   1.472       .  S
C1454      C1455   1.424       .  A
C1455      C1456   1.457       .  A
C1455      C1588   1.488       .  S
C1456      C1457   1.413       .  A
C1456      C1613   1.474       .  S
C1457      C1458   1.423       .  A
C1457      C1469   1.563       .  S
C1458      C1728   1.487       .  S
C1459      C1460   1.422       .  A
C1459      C1464   1.455       .  A
C1459      C1642   1.487       .  S
C1460      C1461   1.411       .  A
C1460      C1479   1.563       .  S
C1461      C1462   1.456       .  A
C1461      C1571   1.471       .  S
C1462      C1463   1.422       .  A
C1462      C1629   1.486       .  S
C1463      C1464   1.411       .  A
C1463      C1465   1.563       .  S
C1464      C1725   1.470       .  S
C1465      N1466   1.378       .  A
C1465      N1470   1.381       .  A
N1466      C1467   1.381       .  A
C1467      C1520   1.563       .  S
C1467      N1468   1.379       .  A
N1468      C1469   1.382       .  A
C1469      N1470   1.378       .  A
C1471      C1472   1.413       .  A
C1471      C1476   1.457       .  A
C1471      C1586   1.473       .  S
C1472      C1473   1.423       .  A
C1472      C1555   1.564       .  S
C1473      C1474   1.454       .  A
C1473      C1601   1.488       .  S
C1474      C1475   1.412       .  A
C1474      C1643   1.472       .  S
C1475      C1476   1.423       .  A
C1475      C1481   1.563       .  S
C1476      C1615   1.488       .  S
C1477      C1490   1.564       .  S
C1477      N1478   1.379       .  A
C1477      N1482   1.381       .  A
N1478      C1479   1.382       .  A
C1479      N1480   1.378       .  A
N1480      C1481   1.381       .  A
C1481      N1482   1.378       .  A
C1483      C1484   1.413       .  A
C1483      C1488   1.455       .  A
C1483      C1599   1.473       .  S
C1484      C1485   1.424       .  A
C1484      C1551   1.564       .  S
C1485      C1486   1.457       .  A
C1485      C1672   1.488       .  S
C1486      C1487   1.413       .  A
C1486      C1711   1.475       .  S
C1487      C1488   1.423       .  A
C1487      C1495   1.563       .  S
C1488      C1641   1.489       .  S
C1489      C1490   1.412       .  A
C1489      C1494   1.457       .  A
C1489      C1614   1.473       .  S
C1490      C1491   1.422       .  A
C1491      C1492   1.456       .  A
C1491      C1574   1.486       .  S
C1492      C1493   1.413       .  A
C1492      C1686   1.473       .  S
C1493      C1494   1.423       .  A
C1493      C1499   1.564       .  S
C1494      C1714   1.488       .  S
C1495      N1496   1.378       .  A
C1495      N1500   1.382       .  A
N1496      C1497   1.381       .  A
C1497      C1502   1.563       .  S
C1497      N1498   1.378       .  A
N1498      C1499   1.382       .  A
C1499      N1500   1.379       .  A
C1501      C1502   1.412       .  A
C1501      C1506   1.456       .  A
C1501      C1644   1.472       .  S
C1502      C1503   1.421       .  A
C1503      C1504   1.456       .  A
C1503      C1683   1.486       .  S
C1504      C1505   1.412       .  A
C1504      C1699   1.472       .  S
C1505      C1506   1.423       .  A
C1505      C1513   1.564       .  S
C1506      C1727   1.488       .  S
C1507      C1508   1.424       .  A
C1507      C1512   1.455       .  A
C1507      C1656   1.489       .  S
C1508      C1509   1.413       .  A
C1508      C1539   1.564       .  S
C1509      C1510   1.456       .  A
C1509      C1670   1.474       .  S
C1510      C1511   1.423       .  A
C1510      C1713   1.489       .  S
C1511      C1512   1.413       .  A
C1511      C1515   1.563       .  S
C1512      C1726   1.473       .  S
C1513      N1514   1.378       .  A
C1513      N1518   1.382       .  A
N1514      C1515   1.381       .  A
C1515      N1516   1.378       .  A
N1516      C1517   1.381       .  A
C1517      C1523   1.565       .  S
C1517      N1518   1.379       .  A
C1519      C1520   1.421       .  A
C1519      C1524   1.456       .  A
C1519      C1616   1.489       .  S
C1520      C1521   1.412       .  A
C1521      C1522   1.456       .  A
C1521      C1628   1.471       .  S
C1522      C1523   1.421       .  A
C1522      C1698   1.487       .  S
C1523      C1524   1.413       .  A
C1524      C1712   1.471       .  S
C1525      C1526   1.458       .  A
C1525      C1530   1.421       .  A
C1525      C1697   1.486       .  S
C1526      C1527   1.413       .  A
C1526      C1685   1.474       .  S
C1527      C1528   1.422       .  A
C1527      C1549   1.565       .  S
C1528      C1529   1.456       .  A
C1528      C1602   1.488       .  S
C1529      C1530   1.412       .  A
C1529      C1657   1.471       .  S
C1530      C1537   1.564       .  S
C1531      C1532   1.457       .  A
C1531      C1536   1.423       .  A
C1531      C1671   1.488       .  S
C1532      C1533   1.412       .  A
C1532      C1585   1.474       .  S
C1533      C1534   1.422       .  A
C1534      C1535   1.459       .  A
C1534      C1630   1.487       .  S
C1535      C1536   1.414       .  A
C1535      C1700   1.476       .  S
C1536      C1541   1.566       .  S
C1537      N1538   1.381       .  A
C1537      N1542   1.380       .  A
N1538      C1539   1.377       .  A
C1539      N1540   1.382       .  A
N1540      C1541   1.379       .  A
C1541      N1542   1.382       .  A
C1543      C1544   1.414       .  A
C1543      C1548   1.458       .  A
C1543      C1572   1.473       .  S
C1544      C1545   1.422       .  A
C1544      C1557   1.565       .  S
C1545      C1546   1.457       .  A
C1545      C1587   1.489       .  S
C1546      C1547   1.414       .  A
C1546      C1669   1.472       .  S
C1547      C1548   1.422       .  A
C1547      C1553   1.565       .  S
C1548      C1684   1.489       .  S
C1549      N1550   1.379       .  A
C1549      N1554   1.382       .  A
N1550      C1551   1.382       .  A
C1551      N1552   1.378       .  A
N1552      C1553   1.381       .  A
C1553      N1554   1.380       .  A
C1555      N1556   1.382       .  A
C1555      N1560   1.378       .  A
N1556      C1557   1.379       .  A
C1557      N1558   1.382       .  A
N1558      C1559   1.379       .  A
C1559      N1560   1.381       .  A
O1561     Cu1569   2.051       .  S
O1561      C1571   1.285       .  A
O1562      C1572   1.286       .  A
O1563      C1573   1.280       .  A
O1564     Cu1569   2.039       .  S
O1564      C1574   1.279       .  A
O1565     Cu1570   1.913       .  S
O1565      C1574   1.261       .  A
O1566      C1573   1.259       .  A
O1567      C1572   1.258       .  A
O1568     Cu1570   1.931       .  S
O1568      C1571   1.259       .  A
Cu1569    Cu1570   2.303       .  S
O1575     Cu2159   2.054       .  S
O1575      C1585   1.286       .  A
O1576     Cu1583   2.055       .  S
O1576      C1586   1.286       .  A
O1577     Cu1583   2.043       .  S
O1577      C1587   1.280       .  A
O1578     Cu2159   2.042       .  S
O1578      C1588   1.279       .  A
O1579     Cu2160   1.915       .  S
O1579      C1588   1.261       .  A
O1580     Cu1584   1.916       .  S
O1580      C1587   1.261       .  A
O1581     Cu1584   1.933       .  S
O1581      C1586   1.259       .  A
O1582     Cu2160   1.934       .  S
O1582      C1585   1.259       .  A
Cu1583     O2151   2.055       .  S
Cu1583     O2154   2.042       .  S
Cu1583    Cu1584   2.303       .  S
Cu1584     O2155   1.915       .  S
Cu1584     O2158   1.935       .  S
O1589     Cu1597   2.052       .  S
O1589      C1599   1.285       .  A
O1590      C1600   1.285       .  A
O1591      C1601   1.279       .  A
O1592     Cu1597   2.038       .  S
O1592      C1602   1.279       .  A
O1593     Cu1598   1.916       .  S
O1593      C1602   1.261       .  A
O1594      C1601   1.262       .  A
O1595      C1600   1.259       .  A
O1596     Cu1598   1.937       .  S
O1596      C1599   1.260       .  A
Cu1597    Cu1598   2.300       .  S
O1603     Cu1611   2.055   1_545  S
O1603      C1613   1.286       .  A
O1604     Cu2187   2.054       .  S
O1604      C1614   1.286       .  A
O1605     Cu2187   2.043       .  S
O1605      C1615   1.280       .  A
O1606     Cu1611   2.043   1_545  S
O1606      C1616   1.280       .  A
O1607     Cu1612   1.916   1_545  S
O1607      C1616   1.261       .  A
O1608     Cu2188   1.915       .  S
O1608      C1615   1.261       .  A
O1609     Cu2188   1.932       .  S
O1609      C1614   1.259       .  A
O1610     Cu1612   1.934   1_545  S
O1610      C1613   1.259       .  A
Cu1611     O2180   2.054       .  S
Cu1611     O2181   2.042       .  S
Cu1611    Cu1612   2.303       .  S
Cu1612     O2184   1.915       .  S
Cu1612     O2185   1.934       .  S
O1617      C1627   1.285       .  A
O1618     Cu1625   2.051       .  S
O1618      C1628   1.285       .  A
O1619     Cu1625   2.039       .  S
O1619      C1629   1.279       .  A
O1620      C1630   1.280       .  A
O1621      C1630   1.259       .  A
O1622     Cu1626   1.913       .  S
O1622      C1629   1.261       .  A
O1623     Cu1626   1.931       .  S
O1623      C1628   1.259       .  A
O1624      C1627   1.258       .  A
Cu1625    Cu1626   2.303       .  S
O1631     Cu1639   1.917       .  S
O1631      C1641   1.262       .  A
O1632      C1642   1.262       .  A
O1633      C1643   1.260       .  A
O1634     Cu1639   1.934       .  S
O1634      C1644   1.259       .  A
O1635     Cu1640   2.051       .  S
O1635      C1644   1.285       .  A
O1636      C1643   1.285       .  A
O1637      C1642   1.278       .  A
O1638     Cu1640   2.040       .  S
O1638      C1641   1.279       .  A
Cu1639    Cu1640   2.301       .  S
O1645      C1655   1.261       .  A
O1646     Cu1653   1.919       .  S
O1646      C1656   1.262       .  A
O1647     Cu1653   1.934       .  S
O1647      C1657   1.259       .  A
O1648      C1658   1.260       .  A
O1649      C1658   1.285       .  A
O1650     Cu1654   2.050       .  S
O1650      C1657   1.285       .  A
O1651     Cu1654   2.040       .  S
O1651      C1656   1.279       .  A
O1652      C1655   1.279       .  A
Cu1653    Cu1654   2.301       .  S
O1659     Cu1667   2.052       .  S
O1659      C1669   1.285       .  A
O1660     Cu2243   2.054       .  S
O1660      C1670   1.285       .  A
O1661     Cu2243   2.041       .  S
O1661      C1671   1.279       .  A
O1662     Cu1667   2.042       .  S
O1662      C1672   1.279       .  A
O1663     Cu1668   1.915       .  S
O1663      C1672   1.261       .  A
O1664     Cu2244   1.915       .  S
O1664      C1671   1.261       .  A
O1665     Cu2244   1.935       .  S
O1665      C1670   1.259       .  A
O1666     Cu1668   1.933       .  S
O1666      C1669   1.259       .  A
Cu1667     O2236   2.055       .  S
Cu1667     O2237   2.043       .  S
Cu1667    Cu1668   2.304       .  S
Cu1668     O2240   1.916       .  S
Cu1668     O2241   1.934       .  S
O1673     Cu1681   1.911       .  S
O1673      C1683   1.260       .  A
O1674      C1684   1.260       .  A
O1675      C1685   1.258       .  A
O1676     Cu1681   1.934       .  S
O1676      C1686   1.259       .  A
O1677     Cu1682   2.053       .  S
O1677      C1686   1.285       .  A
O1678      C1685   1.286       .  A
O1679      C1684   1.281       .  A
O1680     Cu1682   2.039       .  S
O1680      C1683   1.279       .  A
Cu1681    Cu1682   2.304       .  S
O1687      C1697   1.259       .  A
O1688     Cu1695   1.914       .  S
O1688      C1698   1.261       .  A
O1689     Cu1695   1.932       .  S
O1689      C1699   1.259       .  A
O1690      C1700   1.258       .  A
O1691      C1700   1.286       .  A
O1692     Cu1696   2.052       .  S
O1692      C1699   1.285       .  A
O1693     Cu1696   2.040       .  S
O1693      C1698   1.279       .  A
O1694      C1697   1.280       .  A
Cu1695    Cu1696   2.304       .  S
O1701     Cu2285   2.055       .  S
O1701      C1711   1.286       .  A
O1702     Cu1709   2.052       .  S
O1702      C1712   1.285       .  A
O1703     Cu1709   2.042       .  S
O1703      C1713   1.279       .  A
O1704     Cu2285   2.042       .  S
O1704      C1714   1.279       .  A
O1705     Cu1710   1.915       .  S
O1705      C1714   1.261       .  A
O1706     Cu2286   1.916       .  S
O1706      C1713   1.261       .  A
O1707     Cu2286   1.932       .  S
O1707      C1712   1.259       .  A
O1708     Cu1710   1.935       .  S
O1708      C1711   1.259       .  A
Cu1709     O2277   2.055   1_545  S
Cu1709     O2280   2.043   1_545  S
Cu1709    Cu2286   2.303       .  S
Cu1710     O2282   1.915       .  S
Cu1710     O2283   1.933       .  S
Cu1710    Cu2285   2.305       .  S
O1715      C1725   1.285       .  A
O1716     Cu1723   2.052       .  S
O1716      C1726   1.285       .  A
O1717     Cu1723   2.039       .  S
O1717      C1727   1.279       .  A
O1718      C1728   1.279       .  A
O1719      C1728   1.262       .  A
O1720     Cu1724   1.917       .  S
O1720      C1727   1.262       .  A
O1721     Cu1724   1.936       .  S
O1721      C1726   1.260       .  A
O1722      C1725   1.259       .  A
Cu1723    Cu1724   2.300       .  S
C1729      C1730   1.459       .  A
C1729      C1734   1.423       .  A
C1729      C1861   1.488       .  S
C1730      C1731   1.414       .  A
C1730      C1915   1.474       .  S
C1731      C1732   1.423       .  A
C1731      C1735   1.567       .  S
C1732      C1733   1.457       .  A
C1732      C1943   1.489       .  S
C1733      C1734   1.413       .  A
C1733      C1888   1.473       .  S
C1734      C1847   1.565       .  S
C1735      N1736   1.379       .  A
C1735      N1740   1.383       .  A
N1736      C1737   1.382       .  A
C1737      C1742   1.565       .  S
C1737      N1738   1.378       .  A
N1738      C1739   1.382       .  A
C1739      C1821   1.566       .  S
C1739      N1740   1.380       .  A
C1741      C1742   1.413       .  A
C1741      C1746   1.456       .  A
C1741      C1946   1.473       .  S
C1742      C1743   1.424       .  A
C1743      C1744   1.457       .  A
C1743      C1876   1.488       .  S
C1744      C1745   1.413       .  A
C1744      C1901   1.475       .  S
C1745      C1746   1.423       .  A
C1745      C1757   1.563       .  S
C1746      C2016   1.489       .  S
C1747      C1748   1.423       .  A
C1747      C1752   1.457       .  A
C1747      C1930   1.488       .  S
C1748      C1749   1.412       .  A
C1748      C1767   1.566       .  S
C1749      C1750   1.457       .  A
C1749      C1859   1.472       .  S
C1750      C1751   1.422       .  A
C1750      C1917   1.487       .  S
C1751      C1752   1.413       .  A
C1751      C1753   1.565       .  S
C1752      C2013   1.473       .  S
C1753      N1754   1.379       .  A
C1753      N1758   1.381       .  A
N1754      C1755   1.382       .  A
C1755      C1808   1.565       .  S
C1755      N1756   1.378       .  A
N1756      C1757   1.382       .  A
C1757      N1758   1.378       .  A
C1759      C1760   1.413       .  A
C1759      C1764   1.457       .  A
C1759      C1874   1.474       .  S
C1760      C1761   1.424       .  A
C1760      C1843   1.565       .  S
C1761      C1762   1.457       .  A
C1761      C1889   1.488       .  S
C1762      C1763   1.413       .  A
C1762      C1931   1.474       .  S
C1763      C1764   1.423       .  A
C1763      C1769   1.565       .  S
C1764      C1903   1.488       .  S
C1765      C1778   1.565       .  S
C1765      N1766   1.379       .  A
C1765      N1770   1.382       .  A
N1766      C1767   1.382       .  A
C1767      N1768   1.379       .  A
N1768      C1769   1.382       .  A
C1769      N1770   1.379       .  A
C1771      C1772   1.412       .  A
C1771      C1776   1.455       .  A
C1771      C1887   1.471       .  S
C1772      C1773   1.423       .  A
C1772      C1839   1.564       .  S
C1773      C1774   1.457       .  A
C1773      C1960   1.488       .  S
C1774      C1775   1.412       .  A
C1774      C1999   1.474       .  S
C1775      C1776   1.422       .  A
C1775      C1783   1.563       .  S
C1776      C1929   1.488       .  S
C1777      C1778   1.414       .  A
C1777      C1782   1.457       .  A
C1777      C1902   1.473       .  S
C1778      C1779   1.423       .  A
C1779      C1780   1.456       .  A
C1779      C1862   1.489       .  S
C1780      C1781   1.413       .  A
C1780      C1974   1.472       .  S
C1781      C1782   1.422       .  A
C1781      C1787   1.564       .  S
C1782      C2002   1.489       .  S
C1783      N1784   1.378       .  A
C1783      N1788   1.381       .  A
N1784      C1785   1.381       .  A
C1785      C1790   1.564       .  S
C1785      N1786   1.379       .  A
N1786      C1787   1.382       .  A
C1787      N1788   1.378       .  A
C1789      C1790   1.412       .  A
C1789      C1794   1.456       .  A
C1789      C1932   1.471       .  S
C1790      C1791   1.421       .  A
C1791      C1792   1.457       .  A
C1791      C1971   1.487       .  S
C1792      C1793   1.412       .  A
C1792      C1987   1.471       .  S
C1793      C1794   1.422       .  A
C1793      C1801   1.565       .  S
C1794      C2015   1.487       .  S
C1795      C1796   1.423       .  A
C1795      C1800   1.455       .  A
C1795      C1944   1.487       .  S
C1796      C1797   1.413       .  A
C1796      C1827   1.565       .  S
C1797      C1798   1.457       .  A
C1797      C1958   1.473       .  S
C1798      C1799   1.423       .  A
C1798      C2001   1.488       .  S
C1799      C1800   1.411       .  A
C1799      C1803   1.563       .  S
C1800      C2014   1.472       .  S
C1801      N1802   1.378       .  A
C1801      N1806   1.382       .  A
N1802      C1803   1.381       .  A
C1803      N1804   1.378       .  A
N1804      C1805   1.381       .  A
C1805      C1811   1.565       .  S
C1805      N1806   1.379       .  A
C1807      C1808   1.424       .  A
C1807      C1812   1.457       .  A
C1807      C1904   1.489       .  S
C1808      C1809   1.413       .  A
C1809      C1810   1.456       .  A
C1809      C1916   1.473       .  S
C1810      C1811   1.422       .  A
C1810      C1986   1.487       .  S
C1811      C1812   1.414       .  A
C1812      C2000   1.474       .  S
C1813      C1814   1.458       .  A
C1813      C1818   1.422       .  A
C1813      C1985   1.488       .  S
C1814      C1815   1.413       .  A
C1814      C1973   1.473       .  S
C1815      C1816   1.422       .  A
C1815      C1837   1.566       .  S
C1816      C1817   1.456       .  A
C1816      C1890   1.488       .  S
C1817      C1818   1.412       .  A
C1817      C1945   1.471       .  S
C1818      C1825   1.564       .  S
C1819      C1820   1.456       .  A
C1819      C1824   1.422       .  A
C1819      C1959   1.490       .  S
C1820      C1821   1.414       .  A
C1820      C1873   1.473       .  S
C1821      C1822   1.423       .  A
C1822      C1823   1.458       .  A
C1822      C1918   1.489       .  S
C1823      C1824   1.414       .  A
C1823      C1988   1.474       .  S
C1824      C1829   1.565       .  S
C1825      N1826   1.381       .  A
C1825      N1830   1.379       .  A
N1826      C1827   1.378       .  A
C1827      N1828   1.382       .  A
N1828      C1829   1.379       .  A
C1829      N1830   1.382       .  A
C1831      C1832   1.414       .  A
C1831      C1836   1.458       .  A
C1831      C1860   1.475       .  S
C1832      C1833   1.423       .  A
C1832      C1845   1.566       .  S
C1833      C1834   1.457       .  A
C1833      C1875   1.489       .  S
C1834      C1835   1.414       .  A
C1834      C1957   1.473       .  S
C1835      C1836   1.422       .  A
C1835      C1841   1.566       .  S
C1836      C1972   1.488       .  S
C1837      N1838   1.379       .  A
C1837      N1842   1.382       .  A
N1838      C1839   1.382       .  A
C1839      N1840   1.378       .  A
N1840      C1841   1.381       .  A
C1841      N1842   1.380       .  A
C1843      N1844   1.382       .  A
C1843      N1848   1.378       .  A
N1844      C1845   1.379       .  A
C1845      N1846   1.382       .  A
N1846      C1847   1.379       .  A
C1847      N1848   1.382       .  A
O1849     Cu1857   2.052       .  S
O1849      C1859   1.285       .  A
O1850      C1860   1.286       .  A
O1851      C1861   1.280       .  A
O1852     Cu1857   2.043       .  S
O1852      C1862   1.280       .  A
O1853     Cu1858   1.915       .  S
O1853      C1862   1.261       .  A
O1854      C1861   1.260       .  A
O1855      C1860   1.259       .  A
O1856     Cu1858   1.931       .  S
O1856      C1859   1.259       .  A
Cu1857    Cu1858   2.305       .  S
O1863      C1873   1.285       .  A
O1864     Cu1871   2.055   1_565  S
O1864      C1874   1.286       .  A
O1865     Cu1871   2.042   1_565  S
O1865      C1875   1.280       .  A
O1866      C1876   1.279       .  A
O1867      C1876   1.261       .  A
O1868     Cu1872   1.916   1_565  S
O1868      C1875   1.261       .  A
O1869     Cu1872   1.934   1_565  S
O1869      C1874   1.259       .  A
O1870      C1873   1.260       .  A
Cu1871    Cu1872   2.303       .  S
O1877     Cu1885   2.051       .  S
O1877      C1887   1.285       .  A
O1878     Cu2173   2.052       .  S
O1878      C1888   1.285       .  A
O1879     Cu2173   2.041       .  S
O1879      C1889   1.279       .  A
O1880     Cu1885   2.039       .  S
O1880      C1890   1.279       .  A
O1881     Cu1886   1.915       .  S
O1881      C1890   1.261       .  A
O1882     Cu2174   1.917       .  S
O1882      C1889   1.262       .  A
O1883     Cu2174   1.935       .  S
O1883      C1888   1.259       .  A
O1884     Cu1886   1.934       .  S
O1884      C1887   1.259       .  A
Cu1885     O2166   2.051   1_554  S
Cu1885     O2167   2.039   1_554  S
Cu1885    Cu1886   2.300       .  S
Cu1886     O2170   1.916   1_554  S
Cu1886     O2171   1.933   1_554  S
O1891     Cu1899   2.056       .  S
O1891      C1901   1.286       .  A
O1892      C1902   1.285       .  A
O1893      C1903   1.279       .  A
O1894     Cu1899   2.043       .  S
O1894      C1904   1.280       .  A
O1895     Cu1900   1.916       .  S
O1895      C1904   1.261       .  A
O1896      C1903   1.261       .  A
O1897      C1902   1.259       .  A
O1898     Cu1900   1.935       .  S
O1898      C1901   1.259       .  A
Cu1899    Cu1900   2.302       .  S
O1905      C1915   1.286       .  A
O1906     Cu1913   2.052       .  S
O1906      C1916   1.285       .  A
O1907     Cu1913   2.041       .  S
O1907      C1917   1.279       .  A
O1908      C1918   1.280       .  A
O1909      C1918   1.260       .  A
O1910     Cu1914   1.912       .  S
O1910      C1917   1.260       .  A
O1911     Cu1914   1.933       .  S
O1911      C1916   1.259       .  A
O1912      C1915   1.258       .  A
Cu1913    Cu1914   2.304       .  S
O1919     Cu1927   1.916       .  S
O1919      C1929   1.262       .  A
O1920     Cu2215   1.915       .  S
O1920      C1930   1.261       .  A
O1921     Cu2215   1.935       .  S
O1921      C1931   1.259       .  A
O1922     Cu1927   1.932       .  S
O1922      C1932   1.259       .  A
O1923     Cu1928   2.050       .  S
O1923      C1932   1.285       .  A
O1924     Cu2216   2.054       .  S
O1924      C1931   1.286       .  A
O1925     Cu2216   2.041       .  S
O1925      C1930   1.279       .  A
O1926     Cu1928   2.039       .  S
O1926      C1929   1.279       .  A
Cu1927     O2208   1.915   1_554  S
Cu1927     O2209   1.934   1_554  S
Cu1927    Cu1928   2.302       .  S
Cu1928     O2212   2.050   1_554  S
Cu1928     O2213   2.038   1_554  S
O1933     Cu2229   1.917       .  S
O1933      C1943   1.261       .  A
O1934     Cu1941   1.915       .  S
O1934      C1944   1.262       .  A
O1935     Cu1941   1.934       .  S
O1935      C1945   1.259       .  A
O1936     Cu2229   1.935       .  S
O1936      C1946   1.259       .  A
O1937     Cu2230   2.054       .  S
O1937      C1946   1.286       .  A
O1938     Cu1942   2.050       .  S
O1938      C1945   1.285       .  A
O1939     Cu1942   2.038       .  S
O1939      C1944   1.279       .  A
O1940     Cu2230   2.041       .  S
O1940      C1943   1.279       .  A
Cu1941     O2221   1.916   1_554  S
Cu1941     O2224   1.935   1_554  S
Cu1941    Cu1942   2.302       .  S
Cu1942     O2225   2.050   1_554  S
Cu1942     O2228   2.038   1_554  S
O1947     Cu1955   2.052       .  S
O1947      C1957   1.285       .  A
O1948      C1958   1.286       .  A
O1949      C1959   1.280       .  A
O1950     Cu1955   2.042       .  S
O1950      C1960   1.279       .  A
O1951     Cu1956   1.916   1_565  S
O1951      C1960   1.261       .  A
O1952      C1959   1.261       .  A
O1953      C1958   1.259       .  A
O1954     Cu1956   1.935   1_565  S
O1954      C1957   1.259       .  A
Cu1955    Cu1956   2.304   1_565  S
O1961     Cu1969   1.912       .  S
O1961      C1971   1.260       .  A
O1962      C1972   1.260       .  A
O1963      C1973   1.258       .  A
O1964     Cu1969   1.932       .  S
O1964      C1974   1.259       .  A
O1965     Cu1970   2.052       .  S
O1965      C1974   1.285       .  A
O1966      C1973   1.286       .  A
O1967      C1972   1.280       .  A
O1968     Cu1970   2.042       .  S
O1968      C1971   1.280       .  A
Cu1969    Cu1970   2.304       .  S
O1975      C1985   1.260       .  A
O1976     Cu1983   1.913       .  S
O1976      C1986   1.261       .  A
O1977     Cu1983   1.929       .  S
O1977      C1987   1.258       .  A
O1978      C1988   1.258       .  A
O1979      C1988   1.286       .  A
O1980     Cu1984   2.051       .  S
O1980      C1987   1.285       .  A
O1981     Cu1984   2.041       .  S
O1981      C1986   1.280       .  A
O1982      C1985   1.280       .  A
Cu1983    Cu1984   2.307       .  S
O1989      C1999   1.286       .  A
O1990     Cu1997   2.054       .  S
O1990      C2000   1.286       .  A
O1991     Cu1997   2.042       .  S
O1991      C2001   1.279       .  A
O1992      C2002   1.280       .  A
O1993     Cu1998   1.915   1_565  S
O1993      C2002   1.261       .  A
O1994      C2001   1.261       .  A
O1995      C2000   1.259       .  A
O1996     Cu1998   1.933   1_565  S
O1996      C1999   1.259       .  A
O2003     Cu2299   2.053       .  S
O2003      C2013   1.285       .  A
O2004     Cu2011   2.051       .  S
O2004      C2014   1.285       .  A
O2005     Cu2011   2.039       .  S
O2005      C2015   1.279       .  A
O2006     Cu2299   2.041       .  S
O2006      C2016   1.279       .  A
O2007     Cu2300   1.917       .  S
O2007      C2016   1.262       .  A
O2008     Cu2012   1.914       .  S
O2008      C2015   1.261       .  A
O2009     Cu2012   1.934       .  S
O2009      C2014   1.259       .  A
O2010     Cu2300   1.934       .  S
O2010      C2013   1.259       .  A
Cu2011     O2291   2.051   1_554  S
Cu2011     O2294   2.039   1_554  S
Cu2011    Cu2012   2.301       .  S
Cu2012     O2295   1.915   1_554  S
Cu2012     O2298   1.932   1_554  S
C2017      C2018   1.458       .  A
C2017      C2022   1.422       .  A
C2017      C2149   1.488       .  S
C2018      C2019   1.413       .  A
C2018      C2203   1.473       .  S
C2019      C2020   1.423       .  A
C2019      C2023   1.566       .  S
C2020      C2021   1.456       .  A
C2020      C2231   1.488       .  S
C2021      C2022   1.412       .  A
C2021      C2176   1.471       .  S
C2022      C2135   1.564       .  S
C2023      N2024   1.379       .  A
C2023      N2028   1.382       .  A
N2024      C2025   1.382       .  A
C2025      C2030   1.565       .  S
C2025      N2026   1.379       .  A
N2026      C2027   1.382       .  A
C2027      C2109   1.566       .  S
C2027      N2028   1.380       .  A
C2029      C2030   1.412       .  A
C2029      C2034   1.455       .  A
C2029      C2234   1.472       .  S
C2030      C2031   1.423       .  A
C2031      C2032   1.457       .  A
C2031      C2164   1.488       .  S
C2032      C2033   1.412       .  A
C2032      C2189   1.474       .  S
C2033      C2034   1.422       .  A
C2033      C2045   1.564       .  S
C2034      C2304   1.488       .  S
C2035      C2036   1.422       .  A
C2035      C2040   1.456       .  A
C2035      C2218   1.487       .  S
C2036      C2037   1.412       .  A
C2036      C2055   1.565       .  S
C2037      C2038   1.456       .  A
C2037      C2147   1.471       .  S
C2038      C2039   1.421       .  A
C2038      C2205   1.487       .  S
C2039      C2040   1.411       .  A
C2039      C2041   1.563       .  S
C2040      C2301   1.471       .  S
C2041      N2042   1.378       .  A
C2041      N2046   1.381       .  A
N2042      C2043   1.381       .  A
C2043      C2096   1.563       .  S
C2043      N2044   1.379       .  A
N2044      C2045   1.381       .  A
C2045      N2046   1.378       .  A
C2047      C2048   1.413       .  A
C2047      C2052   1.457       .  A
C2047      C2162   1.473       .  S
C2048      C2049   1.423       .  A
C2048      C2131   1.564       .  S
C2049      C2050   1.455       .  A
C2049      C2177   1.488       .  S
C2050      C2051   1.412       .  A
C2050      C2219   1.472       .  S
C2051      C2052   1.423       .  A
C2051      C2057   1.564       .  S
C2052      C2191   1.488       .  S
C2053      C2066   1.565       .  S
C2053      N2054   1.379       .  A
C2053      N2058   1.381       .  A
N2054      C2055   1.382       .  A
C2055      N2056   1.378       .  A
N2056      C2057   1.381       .  A
C2057      N2058   1.378       .  A
C2059      C2060   1.413       .  A
C2059      C2064   1.457       .  A
C2059      C2175   1.473       .  S
C2060      C2061   1.424       .  A
C2060      C2127   1.566       .  S
C2061      C2062   1.457       .  A
C2061      C2248   1.488       .  S
C2062      C2063   1.413       .  A
C2062      C2287   1.475       .  S
C2063      C2064   1.423       .  A
C2063      C2071   1.564       .  S
C2064      C2217   1.488       .  S
C2065      C2066   1.414       .  A
C2065      C2070   1.457       .  A
C2065      C2190   1.473       .  S
C2066      C2067   1.422       .  A
C2067      C2068   1.456       .  A
C2067      C2150   1.487       .  S
C2068      C2069   1.413       .  A
C2068      C2262   1.474       .  S
C2069      C2070   1.423       .  A
C2069      C2075   1.564       .  S
C2070      C2290   1.489       .  S
C2071      N2072   1.379       .  A
C2071      N2076   1.382       .  A
N2072      C2073   1.381       .  A
C2073      C2078   1.564       .  S
C2073      N2074   1.378       .  A
N2074      C2075   1.382       .  A
C2075      N2076   1.379       .  A
C2077      C2078   1.412       .  A
C2077      C2082   1.457       .  A
C2077      C2220   1.473       .  S
C2078      C2079   1.422       .  A
C2079      C2080   1.457       .  A
C2079      C2259   1.487       .  S
C2080      C2081   1.413       .  A
C2080      C2275   1.473       .  S
C2081      C2082   1.423       .  A
C2081      C2089   1.566       .  S
C2082      C2303   1.487       .  S
C2083      C2084   1.423       .  A
C2083      C2088   1.457       .  A
C2083      C2232   1.489       .  S
C2084      C2085   1.413       .  A
C2084      C2115   1.564       .  S
C2085      C2086   1.457       .  A
C2085      C2246   1.475       .  S
C2086      C2087   1.424       .  A
C2086      C2289   1.488       .  S
C2087      C2088   1.413       .  A
C2087      C2091   1.565       .  S
C2088      C2302   1.474       .  S
C2089      N2090   1.379       .  A
C2089      N2094   1.382       .  A
N2090      C2091   1.382       .  A
C2091      N2092   1.379       .  A
N2092      C2093   1.382       .  A
C2093      C2099   1.566       .  S
C2093      N2094   1.379       .  A
C2095      C2096   1.422       .  A
C2095      C2100   1.457       .  A
C2095      C2192   1.489       .  S
C2096      C2097   1.413       .  A
C2097      C2098   1.456       .  A
C2097      C2204   1.473       .  S
C2098      C2099   1.423       .  A
C2098      C2274   1.488       .  S
C2099      C2100   1.414       .  A
C2100      C2288   1.472       .  S
C2101      C2102   1.458       .  A
C2101      C2106   1.422       .  A
C2101      C2273   1.488       .  S
C2102      C2103   1.414       .  A
C2102      C2261   1.474       .  S
C2103      C2104   1.423       .  A
C2103      C2125   1.567       .  S
C2104      C2105   1.457       .  A
C2104      C2178   1.489       .  S
C2105      C2106   1.413       .  A
C2105      C2233   1.473       .  S
C2106      C2113   1.566       .  S
C2107      C2108   1.458       .  A
C2107      C2112   1.424       .  A
C2107      C2247   1.489       .  S
C2108      C2109   1.414       .  A
C2108      C2161   1.474       .  S
C2109      C2110   1.423       .  A
C2110      C2111   1.458       .  A
C2110      C2206   1.488       .  S
C2111      C2112   1.414       .  A
C2111      C2276   1.475       .  S
C2112      C2117   1.566       .  S
C2113      N2114   1.381       .  A
C2113      N2118   1.380       .  A
N2114      C2115   1.378       .  A
C2115      N2116   1.382       .  A
N2116      C2117   1.379       .  A
C2117      N2118   1.382       .  A
C2119      C2120   1.414       .  A
C2119      C2124   1.458       .  A
C2119      C2148   1.475       .  S
C2120      C2121   1.423       .  A
C2120      C2133   1.565       .  S
C2121      C2122   1.457       .  A
C2121      C2163   1.489       .  S
C2122      C2123   1.414       .  A
C2122      C2245   1.474       .  S
C2123      C2124   1.423       .  A
C2123      C2129   1.566       .  S
C2124      C2260   1.489       .  S
C2125      N2126   1.379       .  A
C2125      N2130   1.382       .  A
N2126      C2127   1.382       .  A
C2127      N2128   1.379       .  A
N2128      C2129   1.382       .  A
C2129      N2130   1.380       .  A
C2131      N2132   1.382       .  A
C2131      N2136   1.378       .  A
N2132      C2133   1.379       .  A
C2133      N2134   1.382       .  A
N2134      C2135   1.379       .  A
C2135      N2136   1.381       .  A
O2137     Cu2145   2.051       .  S
O2137      C2147   1.285       .  A
O2138      C2148   1.286       .  A
O2139      C2149   1.280       .  A
O2140     Cu2145   2.039       .  S
O2140      C2150   1.279       .  A
O2141     Cu2146   1.914       .  S
O2141      C2150   1.261       .  A
O2142      C2149   1.260       .  A
O2143      C2148   1.259       .  A
O2144     Cu2146   1.931       .  S
O2144      C2147   1.259       .  A
Cu2145    Cu2146   2.304       .  S
O2151      C2161   1.286       .  A
O2152     Cu2159   2.054   1_565  S
O2152      C2162   1.286       .  A
O2153     Cu2159   2.043   1_565  S
O2153      C2163   1.280       .  A
O2154      C2164   1.279       .  A
O2155      C2164   1.261       .  A
O2156     Cu2160   1.916   1_565  S
O2156      C2163   1.261       .  A
O2157     Cu2160   1.932   1_565  S
O2157      C2162   1.259       .  A
O2158      C2161   1.259       .  A
Cu2159    Cu2160   2.303       .  S
O2165     Cu2173   2.053       .  S
O2165      C2175   1.285       .  A
O2166      C2176   1.285       .  A
O2167      C2177   1.279       .  A
O2168     Cu2173   2.041       .  S
O2168      C2178   1.279       .  A
O2169     Cu2174   1.917       .  S
O2169      C2178   1.262       .  A
O2170      C2177   1.262       .  A
O2171      C2176   1.259       .  A
O2172     Cu2174   1.935       .  S
O2172      C2175   1.259       .  A
Cu2173    Cu2174   2.303       .  S
O2179     Cu2187   2.054       .  S
O2179      C2189   1.286       .  A
O2180      C2190   1.286       .  A
O2181      C2191   1.279       .  A
O2182     Cu2187   2.043       .  S
O2182      C2192   1.280       .  A
O2183     Cu2188   1.916       .  S
O2183      C2192   1.261       .  A
O2184      C2191   1.261       .  A
O2185      C2190   1.259       .  A
O2186     Cu2188   1.933       .  S
O2186      C2189   1.259       .  A
Cu2187    Cu2188   2.303       .  S
O2193      C2203   1.286       .  A
O2194     Cu2201   2.052       .  S
O2194      C2204   1.285       .  A
O2195     Cu2201   2.040       .  S
O2195      C2205   1.279       .  A
O2196      C2206   1.280       .  A
O2197      C2206   1.260       .  A
O2198     Cu2202   1.914       .  S
O2198      C2205   1.261       .  A
O2199     Cu2202   1.933       .  S
O2199      C2204   1.259       .  A
O2200      C2203   1.258       .  A
Cu2201    Cu2202   2.303       .  S
O2207     Cu2215   1.915       .  S
O2207      C2217   1.261       .  A
O2208      C2218   1.261       .  A
O2209      C2219   1.259       .  A
O2210     Cu2215   1.933       .  S
O2210      C2220   1.259       .  A
O2211     Cu2216   2.054       .  S
O2211      C2220   1.286       .  A
O2212      C2219   1.285       .  A
O2213      C2218   1.279       .  A
O2214     Cu2216   2.041       .  S
O2214      C2217   1.279       .  A
Cu2215    Cu2216   2.302       .  S
O2221      C2231   1.262       .  A
O2222     Cu2229   1.917       .  S
O2222      C2232   1.262       .  A
O2223     Cu2229   1.934       .  S
O2223      C2233   1.259       .  A
O2224      C2234   1.259       .  A
O2225      C2234   1.285       .  A
O2226     Cu2230   2.054       .  S
O2226      C2233   1.286       .  A
O2227     Cu2230   2.041       .  S
O2227      C2232   1.279       .  A
O2228      C2231   1.279       .  A
Cu2229    Cu2230   2.301       .  S
O2235     Cu2243   2.053   1_565  S
O2235      C2245   1.285       .  A
O2236      C2246   1.286       .  A
O2237      C2247   1.280       .  A
O2238     Cu2243   2.041   1_565  S
O2238      C2248   1.279       .  A
O2239     Cu2244   1.915   1_565  S
O2239      C2248   1.261       .  A
O2240      C2247   1.261       .  A
O2241      C2246   1.259       .  A
O2242     Cu2244   1.935   1_565  S
O2242      C2245   1.259       .  A
Cu2243    Cu2244   2.304       .  S
O2249     Cu2257   1.913       .  S
O2249      C2259   1.261       .  A
O2250      C2260   1.261       .  A
O2251      C2261   1.259       .  A
O2252     Cu2257   1.935       .  S
O2252      C2262   1.259       .  A
O2253     Cu2258   2.053       .  S
O2253      C2262   1.285       .  A
O2254      C2261   1.286       .  A
O2255      C2260   1.280       .  A
O2256     Cu2258   2.040       .  S
O2256      C2259   1.279       .  A
Cu2257    Cu2258   2.302       .  S
O2263      C2273   1.260       .  A
O2264     Cu2271   1.916       .  S
O2264      C2274   1.261       .  A
O2265     Cu2271   1.933       .  S
O2265      C2275   1.259       .  A
O2266      C2276   1.259       .  A
O2267      C2276   1.286       .  A
O2268     Cu2272   2.053       .  S
O2268      C2275   1.285       .  A
O2269     Cu2272   2.041       .  S
O2269      C2274   1.279       .  A
O2270      C2273   1.280       .  A
Cu2271    Cu2272   2.303       .  S
O2277      C2287   1.286       .  A
O2278     Cu2285   2.052       .  S
O2278      C2288   1.285       .  A
O2279     Cu2285   2.042       .  S
O2279      C2289   1.279       .  A
O2280      C2290   1.280       .  A
O2281     Cu2286   1.917   1_565  S
O2281      C2290   1.261       .  A
O2282      C2289   1.261       .  A
O2283      C2288   1.259       .  A
O2284     Cu2286   1.935   1_565  S
O2284      C2287   1.259       .  A
O2291      C2301   1.285       .  A
O2292     Cu2299   2.053       .  S
O2292      C2302   1.285       .  A
O2293     Cu2299   2.040       .  S
O2293      C2303   1.279       .  A
O2294      C2304   1.279       .  A
O2295      C2304   1.261       .  A
O2296     Cu2300   1.916       .  S
O2296      C2303   1.261       .  A
O2297     Cu2300   1.936       .  S
O2297      C2302   1.260       .  A
O2298      C2301   1.259       .  A
Cu2299    Cu2300   2.304       .  S
