geometry optimzed in LAMMPS
_audit_creation_date              2020-11-30 
_audit_creation_method            'lammps2cif' 
_symmetry_space_group_name_H-M    'P1' 
_symmetry_Int_Tables_number       1 
_symmetry_cell_setting            triclinic 
loop_ 
_symmetry_equiv_pos_as_xyz 
  x,y,z 
_cell_length_a                    55.69636097 
_cell_length_b                    55.705057051886556 
_cell_length_c                    55.727292104289276 
_cell_angle_alpha                 89.49096409128617 
_cell_angle_beta                  89.5633509742402 
_cell_angle_gamma                 90.23035320881174 
loop_ 
_atom_site_label 
_atom_site_type_symbol 
_atom_site_fract_x 
_atom_site_fract_y 
_atom_site_fract_z 
_atom_site_charge 
Zn1        Zn  0.73372038  0.76994275  0.72502133     1.49700
Zn2        Zn  0.77272940  0.77143218  0.76691289     1.49400
Zn3        Zn  0.73304286  0.73032301  0.76657523     1.49100
Zn4        Zn  0.77511723  0.73067375  0.72727715     1.49500
O5          O  0.75367374  0.75059519  0.74642655    -1.82900
O6          O  0.73853295  0.80518836  0.73086233    -0.73500
O7          O  0.76992836  0.76163581  0.80188640    -0.73400
O8          O  0.69831495  0.73950332  0.76264076    -0.72900
O9          O  0.76207807  0.80567267  0.76295208    -0.73600
O10         O  0.69853732  0.76463667  0.73139346    -0.73200
O11         O  0.74126274  0.73379143  0.80145742    -0.73700
O12         O  0.77033919  0.69585024  0.73560600    -0.73100
O13         O  0.80777402  0.76999079  0.75787102    -0.73900
O14         O  0.73803103  0.69523125  0.75940587    -0.73300
O15         O  0.80964661  0.73988470  0.73200537    -0.73700
O16         O  0.76941360  0.73495034  0.69197825    -0.73700
O17         O  0.74111254  0.76296123  0.69047103    -0.73400
C18         C  0.74926409  0.81644983  0.74741031     0.78300
C19         C  0.75648636  0.74642387  0.81270223     0.78800
C20         C  0.68740333  0.75309858  0.74785263     0.77800
C21         C  0.75454538  0.68445534  0.74787738     0.78200
C22         C  0.81971596  0.75628164  0.74410482     0.79300
C23         C  0.75568540  0.74876145  0.68015115     0.78400
Zn24       Zn  0.23471447  0.72073621  0.73003514     1.49700
Zn25       Zn  0.27204791  0.72471779  0.77358109     1.49400
Zn26       Zn  0.27439278  0.76192608  0.72931825     1.49100
Zn27       Zn  0.23163558  0.76414639  0.76694036     1.49500
O28         O  0.25327556  0.74271037  0.75000884    -1.82900
O29         O  0.23918696  0.68658962  0.74086853    -0.73500
O30         O  0.30757467  0.73194916  0.76925854    -0.73400
O31         O  0.26702882  0.75664710  0.69434976    -0.72900
O32         O  0.26582653  0.68896231  0.77036388    -0.73600
O33         O  0.24341030  0.72432544  0.69489387    -0.73200
O34         O  0.30885096  0.75418084  0.73582824    -0.73700
O35         O  0.24323762  0.79849533  0.76447409    -0.73100
O36         O  0.26192775  0.73281964  0.80754993    -0.73900
O37         O  0.27185791  0.79724664  0.73654475    -0.73300
O38         O  0.22981478  0.75581790  0.80232497    -0.73700
O39         O  0.19847991  0.76182775  0.75296034    -0.73700
O40         O  0.19938569  0.72832736  0.73150623    -0.73400
C41         C  0.25194758  0.67674954  0.75704882     0.78300
C42         C  0.31928898  0.74348782  0.75309885     0.78800
C43         C  0.25502030  0.74059007  0.68350420     0.77800
C44         C  0.25921203  0.80885215  0.75154207     0.78200
C45         C  0.24394617  0.74415316  0.81594338     0.79300
C46         C  0.18811722  0.74615644  0.74007427     0.78400
N47         N  0.76975891  0.73710145  0.49602814    -0.02300
C48         C  0.75507470  0.72987875  0.47805494     0.00300
C49         C  0.73176383  0.72719276  0.48623514    -0.22600
C50         C  0.73174078  0.73354240  0.50986986    -0.22800
C51         C  0.75511547  0.73944288  0.51543422     0.00200
H52         H  0.71622266  0.72219844  0.47582337     0.14000
H53         H  0.71631622  0.73376697  0.52180247     0.14000
N54         N  0.00372626  0.75744455  0.72644976    -0.02300
C55         C  0.98608519  0.76215639  0.74267628     0.00300
C56         C  0.99558584  0.76480257  0.76531406    -0.22600
C57         C  0.01989358  0.76163833  0.76304983    -0.22800
C58         C  0.02436520  0.75704570  0.73914672     0.00200
H59         H  0.98588615  0.76879515  0.78169319     0.14000
H60         H  0.03302488  0.76330165  0.77716324     0.14000
N61         N  0.99625630  0.74729295  0.26890828    -0.02300
C62         C  0.97762868  0.74283975  0.25382144     0.00300
C63         C  0.98484474  0.74572866  0.23017697    -0.22600
C64         C  0.00846965  0.75224918  0.23045868    -0.22800
C65         C  0.01516138  0.75288699  0.25421445     0.00200
H66         H  0.97389732  0.74385483  0.21433200     0.14000
H67         H  0.01975811  0.75570823  0.21489945     0.14000
N68         N  0.97305208  0.74799016  0.47238190    -0.35400
N69         N  0.02577414  0.75007339  0.47207001    -0.56000
N70         N  0.02526984  0.74971384  0.52412670    -0.35400
N71         N  0.97251421  0.75200920  0.52437000    -0.56000
C72         C  0.97764162  0.75175922  0.44872686     0.28200
C73         C  0.94963056  0.75334046  0.47636215     0.28200
C74         C  0.04862608  0.75520643  0.51961368     0.28200
C75         C  0.02054239  0.75569410  0.54715196     0.28200
C76         C  0.02160282  0.74369715  0.44908093     0.36800
C77         C  0.04913834  0.74502298  0.47640255     0.36800
C78         C  0.94890252  0.74760389  0.52070906     0.36800
C79         C  0.97651665  0.74769132  0.54792447     0.36800
C80         C  0.95687922  0.75952693  0.43753596    -0.20700
C81         C  0.93925368  0.76055093  0.45493451    -0.20700
C82         C  0.05876590  0.76499054  0.53998914    -0.20700
C83         C  0.04106219  0.76525588  0.55737101    -0.20700
C84         C  0.04232266  0.73450286  0.43884918    -0.21700
C85         C  0.05970125  0.73522563  0.45615485    -0.21700
C86         C  0.93792818  0.74047999  0.54204634    -0.21700
C87         C  0.95538908  0.74060511  0.55927588    -0.21700
C88         C  0.99971559  0.74721397  0.43678646    -0.17100
C89         C  0.93705974  0.75061652  0.49848287    -0.17100
C90         C  0.99867472  0.75127475  0.55958163    -0.17100
C91         C  0.06124502  0.75020961  0.49805308    -0.17100
H92         H  0.95458847  0.76397843  0.41875379     0.15800
H93         H  0.92085797  0.76597522  0.45205043     0.15800
H94         H  0.07704991  0.77117895  0.54219902     0.15800
H95         H  0.04311796  0.77166398  0.57552200     0.15800
H96         H  0.04463866  0.72773737  0.42084092     0.14100
H97         H  0.07795243  0.72897758  0.45405268     0.14100
H98         H  0.91936602  0.73538886  0.54495578     0.14100
H99         H  0.95280887  0.73588012  0.57800084     0.14100
H100        H  0.98457751  0.73978121  0.48449747     0.27400
H101        H  0.01398322  0.73982449  0.51314364     0.27400
N102        N  0.22973418  0.74808755  0.49884569    -0.02300
C103        C  0.24537660  0.74610193  0.51751506     0.00300
C104        C  0.26876698  0.74891227  0.50965762    -0.22600
C105        C  0.26788719  0.75291244  0.48549944    -0.22800
C106        C  0.24392207  0.75263068  0.47929750     0.00200
H107        H  0.28473089  0.74928207  0.52061607     0.14000
H108        H  0.28311323  0.75638956  0.47377055     0.14000
Zn109      Zn  0.26694565  0.76781139  0.26787848     1.49700
Zn110      Zn  0.22592182  0.72753039  0.26887372     1.49400
Zn111      Zn  0.22683683  0.76743400  0.22782641     1.49100
Zn112      Zn  0.26679542  0.72629860  0.22787266     1.49500
O113        O  0.24683987  0.74712898  0.24811001    -1.82900
O114        O  0.25851918  0.76409006  0.30330707    -0.73500
O115        O  0.19129403  0.73642260  0.26506594    -0.73400
O116        O  0.23844300  0.80189396  0.22752312    -0.72900
O117        O  0.23209037  0.73401668  0.30358140    -0.73600
O118        O  0.26332731  0.80267257  0.25848429    -0.73200
O119        O  0.19241856  0.76700076  0.23920716    -0.73700
O120        O  0.25787581  0.73003781  0.19259297    -0.73100
O121        O  0.22961797  0.69215958  0.26225274    -0.73900
O122        O  0.22712311  0.75537663  0.19396939    -0.73300
O123        O  0.25996921  0.69119625  0.23601971    -0.73700
O124        O  0.30244876  0.73429425  0.23208061    -0.73700
O125        O  0.30194294  0.76105443  0.26158467    -0.73400
C126        C  0.24434633  0.74977288  0.31450000     0.78300
C127        C  0.18090415  0.75308649  0.25347082     0.78800
C128        C  0.25238671  0.81325175  0.24146377     0.77800
C129        C  0.24081454  0.74130113  0.18238710     0.78200
C130        C  0.24418160  0.68054617  0.24902425     0.79300
C131        C  0.31331993  0.74846374  0.24632497     0.78400
Zn132      Zn  0.76518327  0.76779044  0.26802860     1.49700
Zn133      Zn  0.72564837  0.72694475  0.26716617     1.49400
Zn134      Zn  0.72556426  0.76750109  0.22676526     1.49100
Zn135      Zn  0.76675732  0.72728758  0.22779787     1.49500
O136        O  0.74590504  0.74748309  0.24726414    -1.82900
O137        O  0.76107702  0.75849505  0.30261195    -0.73500
O138        O  0.69165410  0.73866478  0.26707798    -0.73400
O139        O  0.73158991  0.80262435  0.23265019    -0.72900
O140        O  0.73661957  0.72694046  0.30136785    -0.73600
O141        O  0.75563843  0.80248723  0.26440253    -0.73200
O142        O  0.69058895  0.76411454  0.23616353    -0.73700
O143        O  0.76119864  0.73388113  0.19273604    -0.73100
O144        O  0.72628500  0.69298739  0.25544783    -0.73900
O145        O  0.73041569  0.75930508  0.19157285    -0.73300
O146        O  0.75857518  0.69206247  0.23178787    -0.73700
O147        O  0.80160441  0.73254901  0.23636051    -0.73700
O148        O  0.80051274  0.76294129  0.26205698    -0.73400
C149        C  0.75012723  0.74116801  0.31289578     0.78300
C150        C  0.68028365  0.75309241  0.25351050     0.78800
C151        C  0.74234538  0.81352654  0.24946458     0.77800
C152        C  0.74558374  0.74578243  0.18107798     0.78200
C153        C  0.74096560  0.68159505  0.24218755     0.79300
C154        C  0.81211688  0.74736491  0.25011528     0.78400
N155        N  0.75400426  0.72994278  0.99668341    -0.02300
C156        C  0.76158826  0.74434504  0.97825265     0.00300
C157        C  0.76460184  0.76764966  0.98606784    -0.22600
C158        C  0.75850271  0.76776703  0.00991637    -0.22800
C159        C  0.75228574  0.74448719  0.01603268     0.00200
H160        H  0.77025719  0.78305203  0.97545162     0.14000
H161        H  0.75877878  0.78315371  0.02163874     0.14000
N162        N  0.75215928  0.50049244  0.76595888    -0.02300
C163        C  0.75977912  0.51846566  0.75116580     0.00300
C164        C  0.76105028  0.51064113  0.72774767    -0.22600
C165        C  0.75352200  0.48717441  0.72798044    -0.22800
C166        C  0.74817623  0.48140515  0.75158929     0.00200
H167        H  0.76608668  0.52113499  0.71204764     0.14000
H168        H  0.75252658  0.47542338  0.71265243     0.14000
N169        N  0.75735795  0.27200548  0.99858082    -0.02300
C170        C  0.75837899  0.25669358  0.97978291     0.00300
C171        C  0.75704653  0.23314856  0.98767853    -0.22600
C172        C  0.75474712  0.23384464  0.01213271    -0.22800
C173        C  0.75479086  0.25776881  0.01829070     0.00200
H174        H  0.75627798  0.21725051  0.97667779     0.14000
H175        H  0.75234438  0.21858789  0.02408940     0.14000
N176        N  0.74893653  0.47539509  0.96949240    -0.35400
N177        N  0.74458206  0.52754329  0.96901402    -0.56000
N178        N  0.74343900  0.52710805  0.02131084    -0.35400
N179        N  0.74501862  0.47497011  0.02167426    -0.56000
C180        C  0.74429930  0.47958911  0.94599258     0.28200
C181        C  0.74505211  0.45173219  0.97391655     0.28200
C182        C  0.73661150  0.54985184  0.01642602     0.28200
C183        C  0.73680625  0.52214481  0.04420468     0.28200
C184        C  0.75024068  0.52400711  0.94562717     0.36800
C185        C  0.74729266  0.55133436  0.97311916     0.36800
C186        C  0.75141028  0.45188227  0.01803737     0.36800
C187        C  0.74831539  0.47922805  0.04528659     0.36800
C188        C  0.73754559  0.45816358  0.93534285    -0.20700
C189        C  0.73789156  0.44069098  0.95295032    -0.20700
C190        C  0.72521713  0.55941122  0.03638029    -0.20700
C191        C  0.72531534  0.54190212  0.05392115    -0.20700
C192        C  0.75615739  0.54581706  0.93482095    -0.21700
C193        C  0.75460154  0.56299196  0.95226045    -0.21700
C194        C  0.75896459  0.44154266  0.03940448    -0.21700
C195        C  0.75691660  0.45883464  0.05667045    -0.21700
C196        C  0.74804232  0.50172182  0.93360513    -0.17100
C197        C  0.74894603  0.43962578  0.99603867    -0.17100
C198        C  0.74218827  0.50079886  0.05692222    -0.17100
C199        C  0.74205767  0.56277733  0.99512494    -0.17100
H200        H  0.73310905  0.45512239  0.91677184     0.15800
H201        H  0.73354746  0.42192850  0.95047798     0.15800
H202        H  0.71776945  0.57722533  0.03817870     0.15800
H203        H  0.71791053  0.54362679  0.07182696     0.15800
H204        H  0.76077478  0.54936704  0.91626911     0.14100
H205        H  0.75819393  0.58193702  0.94966828     0.14100
H206        H  0.76527536  0.42341897  0.04233649     0.14100
H207        H  0.76126191  0.45660510  0.07545039     0.14100
H208        H  0.75703840  0.48753723  0.98131431     0.27400
H209        H  0.75480818  0.51652411  0.01050224     0.27400
N210        N  0.72611742  0.49747755  0.22368178    -0.02300
C211        C  0.72182029  0.47856912  0.23877275     0.00300
C212        C  0.71642476  0.48648529  0.26157959    -0.22600
C213        C  0.71734981  0.51100824  0.26071813    -0.22800
C214        C  0.72339170  0.51731642  0.23744946     0.00200
H215        H  0.71204941  0.47554773  0.27717113     0.14000
H216        H  0.71353046  0.52303486  0.27540152     0.14000
Zn217      Zn  0.76668363  0.22572019  0.26771299     1.49700
Zn218      Zn  0.72750396  0.22910475  0.22699383     1.49400
Zn219      Zn  0.72771219  0.26709671  0.26895360     1.49100
Zn220      Zn  0.76876021  0.26921248  0.23011384     1.49500
O221        O  0.74769508  0.24767884  0.24828446    -1.82900
O222        O  0.75643628  0.19132228  0.26320202    -0.73500
O223        O  0.69245575  0.23492541  0.23401520    -0.73400
O224        O  0.73957939  0.26559813  0.30288798    -0.72900
O225        O  0.73201537  0.19327795  0.23185857    -0.73600
O226        O  0.76289948  0.23325603  0.30264264    -0.73200
O227        O  0.69357560  0.25546807  0.26807142    -0.73700
O228        O  0.75832353  0.30395142  0.23254074    -0.73100
O229        O  0.73457335  0.23827214  0.19287185    -0.73900
O230        O  0.72747659  0.30157453  0.25791983    -0.73300
O231        O  0.76654789  0.26236257  0.19480376    -0.73700
O232        O  0.80283137  0.26538551  0.24161412    -0.73700
O233        O  0.80214543  0.23025052  0.26113160    -0.73400
C234        C  0.74289214  0.18123931  0.24796367     0.78300
C235        C  0.68201685  0.24413892  0.25210564     0.78800
C236        C  0.75276801  0.25037960  0.31365880     0.77800
C237        C  0.74086470  0.31363354  0.24362074     0.78200
C238        C  0.75079397  0.25111789  0.18281263     0.79300
C239        C  0.81348016  0.24840195  0.25267766     0.78400
Zn240      Zn  0.77487296  0.23133704  0.72686722     1.49700
Zn241      Zn  0.77620815  0.27161706  0.76693478     1.49400
Zn242      Zn  0.73468378  0.27175943  0.72833345     1.49100
Zn243      Zn  0.73506308  0.23161691  0.76908736     1.49500
O244        O  0.75528943  0.25148186  0.74784641    -1.82900
O245        O  0.81024795  0.23507787  0.73383005    -0.73500
O246        O  0.76742334  0.30653746  0.76350911    -0.73400
O247        O  0.74544887  0.27165436  0.69381180    -0.72900
O248        O  0.81109427  0.26652021  0.75819586    -0.73600
O249        O  0.77136870  0.24144913  0.69217443    -0.73200
O250        O  0.73545388  0.30609097  0.73981784    -0.73700
O251        O  0.69992090  0.23546945  0.76175989    -0.73100
O252        O  0.77143636  0.26464287  0.80198149    -0.73900
O253        O  0.70066706  0.25921378  0.72947560    -0.73300
O254        O  0.74028629  0.23954265  0.80408711    -0.73700
O255        O  0.74094211  0.19654825  0.76256647    -0.73700
O256        O  0.76503970  0.19659461  0.73043901    -0.73400
C257        C  0.82179549  0.25088077  0.74548454     0.78300
C258        C  0.75007869  0.31722952  0.75325796     0.78800
C259        C  0.75964549  0.25822375  0.68204469     0.77800
C260        C  0.68942072  0.24556447  0.74420697     0.78200
C261        C  0.75590520  0.25279691  0.81410551     0.79300
C262        C  0.75182299  0.18557254  0.74573801     0.78400
N263        N  0.73399623  0.00143292  0.74383714    -0.02300
C264        C  0.74885144  0.98230286  0.74621327     0.00300
C265        C  0.77255101  0.98957861  0.74628736    -0.22600
C266        C  0.77252693  0.01395205  0.74305293    -0.22800
C267        C  0.74876157  0.02080986  0.74158150     0.00200
H268        H  0.78820381  0.97827906  0.74816259     0.14000
H269        H  0.78818824  0.02547723  0.74179645     0.14000
N270        N  0.50318628  0.76749321  0.76247752    -0.02300
C271        C  0.48472296  0.75198785  0.76699266     0.00300
C272        C  0.49325098  0.72926844  0.77191994    -0.22600
C273        C  0.51771932  0.73070330  0.77076757    -0.22800
C274        C  0.52344891  0.75428756  0.76520461     0.00200
H275        H  0.48276403  0.71340830  0.77631577     0.14000
H276        H  0.53009207  0.71623433  0.77450723     0.14000
N277        N  0.27562296  0.99293267  0.73872718    -0.02300
C278        C  0.26095535  0.97356248  0.74175495     0.00300
C279        C  0.23746055  0.97973336  0.73708273    -0.22600
C280        C  0.23758981  0.00361241  0.73078773    -0.22800
C281        C  0.26114157  0.01135866  0.73218442     0.00200
H282        H  0.22187225  0.96809806  0.73818409     0.14000
H283        H  0.22199969  0.01444386  0.72682868     0.14000
N284        N  0.47796882  0.97020216  0.74481274    -0.35400
N285        N  0.47912814  0.02219082  0.73966162    -0.56000
N286        N  0.53149366  0.02127271  0.74272764    -0.35400
N287        N  0.53048726  0.96911784  0.74361834    -0.56000
C288        C  0.45462977  0.97464549  0.73985011     0.28200
C289        C  0.48180170  0.94652887  0.74111847     0.28200
C290        C  0.52764364  0.04400333  0.73493593     0.28200
C291        C  0.55475226  0.01606725  0.73794632     0.28200
C292        C  0.45555186  0.01894270  0.74481391     0.36800
C293        C  0.48380259  0.04575585  0.74305718     0.36800
C294        C  0.52567149  0.94600273  0.74957166     0.36800
C295        C  0.55379555  0.97298369  0.74916583     0.36800
C296        C  0.44343416  0.95350673  0.73308059    -0.20700
C297        C  0.46057346  0.93579213  0.73381585    -0.20700
C298        C  0.54865092  0.05321359  0.72488138    -0.20700
C299        C  0.56580269  0.03564199  0.72695481    -0.20700
C300        C  0.44525696  0.04048127  0.75155703    -0.21700
C301        C  0.46315277  0.05746218  0.75047416    -0.21700
C302        C  0.54596769  0.93524910  0.75904047    -0.21700
C303        C  0.56377861  0.95233015  0.75874937    -0.21700
C304        C  0.44296660  0.99702396  0.74237599    -0.17100
C305        C  0.50354642  0.93416939  0.74554619    -0.17100
C306        C  0.56646500  0.99451336  0.74428118    -0.17100
C307        C  0.50610574  0.05703957  0.73815906    -0.17100
H308        H  0.42483369  0.95104286  0.72814830     0.15800
H309        H  0.45762612  0.91709850  0.72956994     0.15800
H310        H  0.55143533  0.07079894  0.71692221     0.15800
H311        H  0.58428305  0.03709328  0.72094990     0.15800
H312        H  0.42680841  0.04363461  0.75683978     0.14100
H313        H  0.46115817  0.07625044  0.75479583     0.14100
H314        H  0.54777283  0.91704205  0.76568124     0.14100
H315        H  0.58196671  0.94981571  0.76494942     0.14100
H316        H  0.48988609  0.98206824  0.75270595     0.27400
H317        H  0.51975505  0.01095297  0.75316634     0.27400
N318        N  0.50715097  0.22338882  0.71855678    -0.02300
C319        C  0.48889686  0.23832478  0.71228622     0.00300
C320        C  0.49800063  0.25979418  0.70339356    -0.22600
C321        C  0.52250212  0.25818677  0.70431126    -0.22800
C322        C  0.52770443  0.23583274  0.71377990     0.00200
H323        H  0.48793731  0.27522826  0.69728900     0.14000
H324        H  0.53521891  0.27192659  0.69874456     0.14000
Zn325      Zn  0.23896061  0.22283327  0.73176840     1.49700
Zn326      Zn  0.27933233  0.22292059  0.77363913     1.49400
Zn327      Zn  0.27760947  0.26487750  0.73479494     1.49100
Zn328      Zn  0.23596108  0.26116022  0.77383737     1.49500
O329        O  0.25797162  0.24270416  0.75363455    -1.82900
O330        O  0.24838657  0.18811319  0.73572766    -0.73500
O331        O  0.31477540  0.22805636  0.76446824    -0.73400
O332        O  0.26631902  0.26580513  0.70057069    -0.72900
O333        O  0.27297687  0.18737469  0.76718129    -0.73600
O334        O  0.24303386  0.23355870  0.69700174    -0.73200
O335        O  0.31255597  0.25502552  0.73493928    -0.73700
O336        O  0.24374797  0.29667454  0.77276489    -0.73100
O337        O  0.27402611  0.23113444  0.80911491    -0.73900
O338        O  0.27502440  0.29842143  0.74780939    -0.73300
O339        O  0.24009390  0.25228534  0.80871762    -0.73700
O340        O  0.20151434  0.25685803  0.76315190    -0.73700
O341        O  0.20317380  0.22663212  0.73737205    -0.73400
C342        C  0.26142233  0.17668372  0.75064570     0.78300
C343        C  0.32472332  0.24067169  0.74792147     0.78800
C344        C  0.25324684  0.25206478  0.68796409     0.77800
C345        C  0.26043190  0.30846305  0.76223364     0.78200
C346        C  0.25721379  0.24227698  0.82004023     0.79300
C347        C  0.19129280  0.24228726  0.74893686     0.78400
N348        N  0.21602097  0.72822540  0.99878716    -0.02300
C349        C  0.20944958  0.74258477  0.97998239     0.00300
C350        C  0.20043897  0.76412125  0.98811970    -0.22600
C351        C  0.20141212  0.76328571  0.01258149    -0.22800
C352        C  0.21098435  0.74125709  0.01880560     0.00200
H353        H  0.19434333  0.77915329  0.97737159     0.14000
H354        H  0.19582302  0.77738515  0.02461816     0.14000
N355        N  0.26281107  0.49260084  0.77788209    -0.02300
C356        C  0.25898588  0.51146852  0.76271332     0.00300
C357        C  0.26251618  0.50475955  0.73918606    -0.22600
C358        C  0.26893763  0.48109714  0.73963820    -0.22800
C359        C  0.26881739  0.47391418  0.76344861     0.00200
H360        H  0.26069084  0.51596347  0.72333791     0.14000
H361        H  0.27244604  0.47004571  0.72413258     0.14000
N362        N  0.26262212  0.27079605  0.00421042    -0.02300
C363        C  0.26539389  0.25542541  0.98550301     0.00300
C364        C  0.26737902  0.23205714  0.99365377    -0.22600
C365        C  0.26595050  0.23280690  0.01813564    -0.22800
C366        C  0.26308145  0.25661345  0.02421223     0.00200
H367        H  0.26980661  0.21616376  0.98287976     0.14000
H368        H  0.26743142  0.21764958  0.03031973     0.14000
N369        N  0.25478464  0.47460456  0.98105183    -0.35400
N370        N  0.25289018  0.47449988  0.03333979    -0.56000
N371        N  0.25071203  0.52713453  0.03276622    -0.35400
N372        N  0.24905848  0.52694032  0.98033575    -0.56000
C373        C  0.24969671  0.45120360  0.98574729     0.28200
C374        C  0.24919258  0.47890130  0.95781083     0.28200
C375        C  0.24653768  0.52234599  0.05637622     0.28200
C376        C  0.24386628  0.55012428  0.02826202     0.28200
C377        C  0.25836748  0.45114288  0.02943551     0.36800
C378        C  0.25766334  0.47890729  0.05671922     0.36800
C379        C  0.25491931  0.52313803  0.95702039     0.36800
C380        C  0.25169035  0.55081145  0.98410362     0.36800
C381        C  0.24053944  0.44065333  0.96525991    -0.20700
C382        C  0.24036515  0.45806979  0.94763069    -0.20700
C383        C  0.23726532  0.54274527  0.06706707    -0.20700
C384        C  0.23516531  0.55998419  0.04936779    -0.20700
C385        C  0.26688312  0.44078901  0.05040275    -0.21700
C386        C  0.26611988  0.45819843  0.06769039    -0.21700
C387        C  0.26148372  0.54461483  0.94604219    -0.21700
C388        C  0.25932306  0.56210901  0.96310196    -0.21700
C389        C  0.25435928  0.43882848  0.00757184    -0.17100
C390        C  0.25291589  0.50078215  0.94521823    -0.17100
C391        C  0.24641778  0.56272174  0.00593737    -0.17100
C392        C  0.25234852  0.50064182  0.06876101    -0.17100
H393        H  0.23451255  0.42231265  0.96314788     0.15800
H394        H  0.23424189  0.45568624  0.92941713     0.15800
H395        H  0.23252982  0.54526427  0.08570784     0.15800
H396        H  0.22801923  0.57778347  0.05200484     0.15800
H397        H  0.27305027  0.42259753  0.05314089     0.14100
H398        H  0.27109464  0.45569612  0.08626036     0.14100
H399        H  0.26731260  0.54747812  0.92767581     0.14100
H400        H  0.26332364  0.58095852  0.96035520     0.14100
H401        H  0.26407949  0.48637431  0.99225831     0.27400
H402        H  0.26004145  0.51602891  0.02090427     0.27400
N403        N  0.25318392  0.49639416  0.23698377    -0.02300
C404        C  0.24560398  0.51399194  0.25194685     0.00300
C405        C  0.24663755  0.50634469  0.27554307    -0.22600
C406        C  0.25548319  0.48340487  0.27524853    -0.22800
C407        C  0.25929794  0.47766036  0.25144266     0.00200
H408        H  0.24228101  0.51666995  0.29134188     0.14000
H409        H  0.25818461  0.47187950  0.29072648     0.14000
N410        N  0.49706293  0.77201653  0.25918069    -0.02300
C411        C  0.51610751  0.75765473  0.26431695     0.00300
C412        C  0.51003937  0.73379094  0.26177158    -0.22600
C413        C  0.48669108  0.73322227  0.25431670    -0.22800
C414        C  0.47903460  0.75673690  0.25295113     0.00200
H415        H  0.52170979  0.71845794  0.26404404     0.14000
H416        H  0.47628791  0.71727931  0.25046201     0.14000
N417        N  0.71929488  0.99669261  0.26268762    -0.02300
C418        C  0.73453572  0.97788055  0.26544303     0.00300
C419        C  0.75802767  0.98587644  0.26636075    -0.22600
C420        C  0.75736116  0.01036523  0.26419960    -0.22800
C421        C  0.73351105  0.01655433  0.26193526     0.00200
H422        H  0.77395663  0.97503575  0.26857036     0.14000
H423        H  0.77258344  0.02247293  0.26490182     0.14000
N424        N  0.26183576  0.99730445  0.24077705    -0.02300
C425        C  0.24822877  0.97840179  0.23339893     0.00300
C426        C  0.22421110  0.98458887  0.23296717    -0.22600
C427        C  0.22275285  0.00784624  0.24057914    -0.22800
C428        C  0.24592528  0.01523347  0.24507207     0.00200
H429        H  0.20922786  0.97313011  0.22835801     0.14000
H430        H  0.20658156  0.01845763  0.24208913     0.14000
N431        N  0.51565209  0.97438438  0.26541370    -0.35400
N432        N  0.46326544  0.97517519  0.26411352    -0.56000
N433        N  0.46403491  0.02675238  0.27137587    -0.35400
N434        N  0.51670416  0.02600801  0.26903542    -0.56000
C435        C  0.51066313  0.95184638  0.25815143     0.28200
C436        C  0.53888377  0.97896173  0.25959205     0.28200
C437        C  0.44113609  0.02332831  0.26399110     0.28200
C438        C  0.46957507  0.05011570  0.26724767     0.28200
C439        C  0.46691297  0.95132849  0.26723560     0.36800
C440        C  0.43968540  0.97911162  0.26867084     0.36800
C441        C  0.54015703  0.02121698  0.27285860     0.36800
C442        C  0.51301732  0.04866255  0.27663009     0.36800
C443        C  0.53087447  0.94201999  0.24740883    -0.20700
C444        C  0.54868878  0.95918390  0.24825579    -0.20700
C445        C  0.43212597  0.04472766  0.25500821    -0.20700
C446        C  0.45004671  0.06159363  0.25702732    -0.20700
C447        C  0.44559734  0.94014841  0.27399066    -0.21700
C448        C  0.42833788  0.95771211  0.27474387    -0.21700
C449        C  0.55135658  0.04080911  0.28314595    -0.21700
C450        C  0.53414200  0.05822645  0.28553394    -0.21700
C451        C  0.48888612  0.93942288  0.26253908    -0.17100
C452        C  0.55175397  0.99990089  0.26575711    -0.17100
C453        C  0.49147079  0.06147751  0.27332021    -0.17100
C454        C  0.42806674  0.00150893  0.26579546    -0.17100
H455        H  0.53265256  0.92425555  0.23989859     0.15800
H456        H  0.56685959  0.95719906  0.24156028     0.15800
H457        H  0.41459975  0.04788487  0.24739982     0.15800
H458        H  0.44884580  0.08013638  0.25124305     0.15800
H459        H  0.44267830  0.92128589  0.27782373     0.14100
H460        H  0.40959149  0.95502690  0.27930324     0.14100
H461        H  0.56998336  0.04245466  0.28828845     0.14100
H462        H  0.53693313  0.07598564  0.29274618     0.14100
H463        H  0.50469850  0.98478307  0.27634626     0.27400
H464        H  0.47452219  0.01447518  0.28077820     0.27400
N465        N  0.49751358  0.22851048  0.27202659    -0.02300
C466        C  0.51774977  0.24197101  0.27454087     0.00300
C467        C  0.51210154  0.26470247  0.28247201    -0.22600
C468        C  0.48764219  0.26541628  0.28505653    -0.22800
C469        C  0.47918994  0.24308680  0.27858209     0.00200
H470        H  0.52455742  0.27904822  0.28651238     0.14000
H471        H  0.47715206  0.28056582  0.29105265     0.14000
N472        N  0.77517194  0.26102252  0.49789387    -0.02300
C473        C  0.76098853  0.26164074  0.47809027     0.00300
C474        C  0.73806481  0.26898083  0.48392534    -0.22600
C475        C  0.73777045  0.27297734  0.50806552    -0.22800
C476        C  0.76055034  0.26796830  0.51622225     0.00200
H477        H  0.72339074  0.27211079  0.47167098     0.14000
H478        H  0.72259298  0.27912577  0.51855402     0.14000
N479        N  0.00678831  0.25576611  0.72832828    -0.02300
C480        C  0.02630398  0.25648597  0.74288643     0.00300
C481        C  0.01932198  0.26081593  0.76630398    -0.22600
C482        C  0.99489741  0.26315677  0.76629019    -0.22800
C483        C  0.98763929  0.26021892  0.74286296     0.00200
H484        H  0.03092482  0.26315684  0.78160892     0.14000
H485        H  0.98365286  0.26714409  0.78166233     0.14000
N486        N  0.99786879  0.26463629  0.26999671    -0.02300
C487        C  0.01569748  0.26847404  0.25361545     0.00300
C488        C  0.00622048  0.27196233  0.23099887    -0.22600
C489        C  0.98179140  0.27009738  0.23340966    -0.22800
C490        C  0.97715384  0.26551070  0.25738120     0.00200
H491        H  0.01603205  0.27518731  0.21443779     0.14000
H492        H  0.96873756  0.27213990  0.21925364     0.14000
N493        N  0.03176732  0.26191247  0.47272178    -0.35400
N494        N  0.97901356  0.25628947  0.47314606    -0.56000
N495        N  0.97910058  0.25948022  0.52531256    -0.35400
N496        N  0.03178854  0.26126153  0.52499103    -0.56000
C497        C  0.02783773  0.25739782  0.44920762     0.28200
C498        C  0.05569617  0.25982521  0.47666886     0.28200
C499        C  0.95581296  0.25359720  0.52138985     0.28200
C500        C  0.98369030  0.25474975  0.54872288     0.28200
C501        C  0.98297553  0.26094609  0.44953692     0.36800
C502        C  0.95523921  0.25989599  0.47717427     0.36800
C503        C  0.05534595  0.26620849  0.52111785     0.36800
C504        C  0.02771777  0.26384076  0.54881294     0.36800
C505        C  0.04962295  0.25267849  0.43799995    -0.20700
C506        C  0.06713294  0.25451424  0.45515121    -0.20700
C507        C  0.94552252  0.24508098  0.54254397    -0.20700
C508        C  0.96305468  0.24576153  0.55972336    -0.20700
C509        C  0.96161536  0.26757222  0.43869749    -0.21700
C510        C  0.94410624  0.26672559  0.45609076    -0.21700
C511        C  0.06625837  0.27171598  0.54271157    -0.21700
C512        C  0.04878667  0.27037708  0.56013524    -0.21700
C513        C  0.00535407  0.25864129  0.43732695    -0.17100
C514        C  0.06757698  0.26383777  0.49881739    -0.17100
C515        C  0.00561373  0.25921718  0.56076588    -0.17100
C516        C  0.94329930  0.25674348  0.49952581    -0.17100
H517        H  0.05278332  0.24851784  0.41932288     0.15800
H518        H  0.08613822  0.25238373  0.45181326     0.15800
H519        H  0.92728767  0.23884411  0.54536488     0.15800
H520        H  0.96077480  0.24015148  0.57823965     0.15800
H521        H  0.95886728  0.27301254  0.42024715     0.14100
H522        H  0.92540886  0.27119821  0.45353800     0.14100
H523        H  0.08493392  0.27587064  0.54588789     0.14100
H524        H  0.05144524  0.27363951  0.57904292     0.14100
H525        H  0.01911147  0.26832259  0.48476106     0.27400
H526        H  0.99035941  0.26862573  0.51341951     0.27400
N527        N  0.23442728  0.27536761  0.50602522    -0.02300
C528        C  0.24791719  0.27920147  0.48596906     0.00300
C529        C  0.26990935  0.28899422  0.49187351    -0.22600
C530        C  0.27008502  0.29122066  0.51637546    -0.22800
C531        C  0.24815310  0.28279384  0.52458551     0.00200
H532        H  0.28414397  0.29436161  0.47960347     0.14000
H533        H  0.28465460  0.29818072  0.52704917     0.14000
Zn534      Zn  0.22719504  0.22709159  0.27707088     1.49700
Zn535      Zn  0.26824623  0.22712263  0.23522476     1.49400
Zn536      Zn  0.22862367  0.26788287  0.23593880     1.49100
Zn537      Zn  0.26895149  0.26640482  0.27588373     1.49500
O538        O  0.24811384  0.24692316  0.25600512    -1.82900
O539        O  0.23437575  0.19187487  0.27201625    -0.73500
O540        O  0.26345416  0.23544099  0.20000281    -0.73400
O541        O  0.19359110  0.26424599  0.24432751    -0.72900
O542        O  0.26033765  0.19233757  0.24131545    -0.73600
O543        O  0.19204875  0.23344287  0.27005022    -0.73200
O544        O  0.23291293  0.26101267  0.20065751    -0.73700
O545        O  0.26961656  0.30116361  0.26493108    -0.73100
O546        O  0.30357165  0.23042249  0.24310954    -0.73900
O547        O  0.23898531  0.30237604  0.23961246    -0.73300
O548        O  0.30282606  0.25395827  0.27511459    -0.73700
O549        O  0.25721913  0.26560743  0.30996620    -0.73700
O550        O  0.23111091  0.23538652  0.31243267    -0.73400
C551        C  0.24757278  0.18103303  0.25678932     0.78300
C552        C  0.24839913  0.24880882  0.18918505     0.78800
C553        C  0.18172347  0.24953306  0.25746796     0.77800
C554        C  0.25592005  0.31273389  0.25080822     0.78200
C555        C  0.31413664  0.24066595  0.26045036     0.79300
C556        C  0.24293874  0.25228898  0.32213972     0.78400
C557        C  0.23170712  0.25376348  0.38447272     0.31000
C558        C  0.22473854  0.24525187  0.40742052    -0.35400
C559        C  0.23063010  0.26012182  0.42688895     0.17000
C560        C  0.24247641  0.28175126  0.42377211     0.22800
C561        C  0.24908816  0.29030709  0.40103098    -0.33500
C562        C  0.24339825  0.27551606  0.38180012     0.16900
O563        O  0.22948215  0.24244302  0.36377834    -0.25500
C564        C  0.24008824  0.25723732  0.34793094     0.06700
C565        C  0.24893535  0.27802704  0.35822570    -0.30400
O566        O  0.24859908  0.29164356  0.44413295    -0.22200
C567        C  0.24039180  0.27650664  0.46082203    -0.02200
C568        C  0.22892837  0.25649290  0.45119963    -0.16600
H569        H  0.21619894  0.22792471  0.40999298     0.21300
H570        H  0.25900659  0.30691193  0.39859364     0.19700
H571        H  0.25853792  0.29271340  0.34959490     0.19700
H572        H  0.22240670  0.24062565  0.46052650     0.15500
C573        C  0.12892003  0.27812218  0.50567111     0.31000
C574        C  0.14856999  0.29219991  0.51259496    -0.35400
C575        C  0.17125642  0.28175483  0.50977520     0.17000
C576        C  0.17452196  0.25909965  0.50044189     0.22800
C577        C  0.15480606  0.24487001  0.49379698    -0.33500
C578        C  0.13203782  0.25525358  0.49688755     0.16900
O579        O  0.10612654  0.28435050  0.50696045    -0.25500
C580        C  0.09433535  0.26521267  0.49898249     0.06700
C581        C  0.10958311  0.24647317  0.49264752    -0.30400
O582        O  0.19744951  0.25342823  0.49829072    -0.22200
C583        C  0.20881398  0.27260627  0.50669273    -0.02200
C584        C  0.19351075  0.29071015  0.51419124    -0.16600
H585        H  0.14632845  0.31010533  0.51963076     0.21300
H586        H  0.15706008  0.22703681  0.48658924     0.19700
H587        H  0.10475215  0.22885007  0.48618698     0.19700
H588        H  0.19822489  0.30823422  0.52098513     0.15500
C589        C  0.12148138  0.26551489  0.25101644     0.31000
C590        C  0.10244471  0.27899958  0.24192713    -0.35400
C591        C  0.07963054  0.27295872  0.25071337     0.17000
C592        C  0.07557367  0.25483722  0.26731801     0.22800
C593        C  0.09474506  0.24126018  0.27649861    -0.33500
C594        C  0.11774329  0.24734486  0.26765870     0.16900
O595        O  0.14424041  0.26832340  0.24515325    -0.25500
C596        C  0.15544089  0.25176446  0.25814176     0.06700
C597        C  0.13988343  0.23807783  0.27249321    -0.30400
O598        O  0.05243085  0.25151210  0.27182311    -0.22200
C599        C  0.04176311  0.26779465  0.25789056    -0.02200
C600        C  0.05785403  0.28160946  0.24450224    -0.16600
H601        H  0.10520903  0.29307535  0.22866598     0.21300
H602        H  0.09191016  0.22678675  0.28930396     0.19700
H603        H  0.14428617  0.22367055  0.28483296     0.19700
H604        H  0.05395659  0.29529178  0.23119193     0.15500
C605        C  0.99279495  0.25372037  0.33137081     0.31000
C606        C  0.98316620  0.24359534  0.35251276    -0.35400
C607        C  0.99426566  0.25034812  0.37396425     0.17000
C608        C  0.01326438  0.26627910  0.37468509     0.22800
C609        C  0.02307561  0.27621771  0.35352347    -0.33500
C610        C  0.01218999  0.26921498  0.33202713     0.16900
O611        O  0.98509980  0.25004436  0.30934427    -0.25500
C612        C  0.00004045  0.26304409  0.29569790     0.06700
C613        C  0.01715465  0.27549025  0.30884374    -0.30400
O614        O  0.02002587  0.27100385  0.39681880    -0.22200
C615        C  0.00522351  0.25783651  0.41052444    -0.02200
C616        C  0.98911275  0.24430377  0.39714191    -0.16600
H617        H  0.96797320  0.23142815  0.35227353     0.21300
H618        H  0.03801924  0.28868969  0.35380462     0.19700
H619        H  0.03090921  0.28774125  0.30235816     0.19700
H620        H  0.97512034  0.23231518  0.40363948     0.15500
C621        C  0.99722417  0.26350770  0.66720811     0.31000
C622        C  0.98676264  0.27355062  0.64663754    -0.35400
C623        C  0.99604847  0.26583498  0.62456666     0.17000
C624        C  0.01432129  0.24927654  0.62277333     0.22800
C625        C  0.02475324  0.23914121  0.64337687    -0.33500
C626        C  0.01553910  0.24697313  0.66549804     0.16900
O627        O  0.99153197  0.26849616  0.68962707    -0.25500
C628        C  0.00651867  0.25513248  0.70249780     0.06700
C629        C  0.02174299  0.24118644  0.68845389    -0.30400
O630        O  0.02023577  0.24474036  0.60027023    -0.22200
C631        C  0.00547504  0.25852469  0.58749512    -0.02200
C632        C  0.99013250  0.27211318  0.60171660    -0.16600
H633        H  0.97246863  0.28660439  0.64776739     0.21300
H634        H  0.03915380  0.22620260  0.64224533     0.19700
H635        H  0.03509501  0.22838538  0.69414028     0.19700
H636        H  0.97659455  0.28476047  0.59596593     0.15500
C637        C  0.83665820  0.26451447  0.50881580     0.31000
C638        C  0.85763827  0.27326920  0.51957934    -0.35400
C639        C  0.87947423  0.26486490  0.51013398     0.17000
C640        C  0.88066613  0.24881431  0.49146286     0.22800
C641        C  0.85964612  0.23984128  0.48086009    -0.33500
C642        C  0.83778389  0.24837561  0.49022191     0.16900
O643        O  0.81441104  0.27074709  0.51418888    -0.25500
C644        C  0.80099728  0.25847832  0.49881528     0.06700
C645        C  0.81462810  0.24407911  0.48359867    -0.30400
O646        O  0.90303122  0.24376897  0.48517390    -0.22200
C647        C  0.91640719  0.25667222  0.50011414    -0.02200
C648        C  0.90260641  0.27020979  0.51594442    -0.16600
H649        H  0.85699166  0.28606434  0.53406780     0.21300
H650        H  0.86029160  0.22738565  0.46607664     0.19700
H651        H  0.80866623  0.23209890  0.46976794     0.19700
H652        H  0.90879730  0.28239635  0.52961562     0.15500
C653        C  0.41971967  0.22843722  0.26497769     0.31000
C654        C  0.40058903  0.22239780  0.24984560    -0.35400
C655        C  0.37752813  0.22840939  0.25817976     0.17000
C656        C  0.37364546  0.23944937  0.27994627     0.22800
C657        C  0.39266335  0.24514892  0.29516430    -0.33500
C658        C  0.41562743  0.23936900  0.28676268     0.16900
O659        O  0.44282463  0.22680827  0.25978046    -0.25500
C660        C  0.45350384  0.23690139  0.27846749     0.06700
C661        C  0.43747624  0.24492911  0.29579589    -0.30400
O662        O  0.35095508  0.24490499  0.28358746    -0.22200
C663        C  0.34000717  0.23720713  0.26398558    -0.02200
C664        C  0.35560555  0.22666169  0.24754099    -0.16600
H665        H  0.40354875  0.21454537  0.23238216     0.21300
H666        H  0.38982599  0.25441822  0.31193121     0.19700
H667        H  0.44136509  0.25481983  0.31195340     0.19700
H668        H  0.35150091  0.21952476  0.23003498     0.15500
C669        C  0.50282808  0.12320075  0.26543935     0.31000
C670        C  0.51472093  0.14356703  0.25622661    -0.35400
C671        C  0.50448674  0.16575957  0.26198871     0.17000
C672        C  0.48388178  0.16774105  0.27570940     0.22800
C673        C  0.47184441  0.14737430  0.28471272    -0.33500
C674        C  0.48222933  0.12521297  0.27917820     0.16900
O675        O  0.50919180  0.10070175  0.26217970    -0.25500
C676        C  0.49241138  0.08810244  0.27392016     0.06700
C677        C  0.47533488  0.10246069  0.28510629    -0.30400
O678        O  0.47829991  0.19021584  0.28014430    -0.22200
C679        C  0.49560009  0.20286792  0.26923894    -0.02200
C680        C  0.51223725  0.18855746  0.25733089    -0.16600
H681        H  0.53102536  0.14221539  0.24564300     0.21300
H682        H  0.45578489  0.14873921  0.29566662     0.19700
H683        H  0.45978160  0.09686362  0.29552738     0.19700
H684        H  0.52799673  0.19381181  0.24719630     0.15500
C685        C  0.24497942  0.07484156  0.26331366     0.31000
C686        C  0.23557086  0.09477613  0.27535782    -0.35400
C687        C  0.24269700  0.11732614  0.26641933     0.17000
C688        C  0.25793793  0.12001829  0.24692259     0.22800
C689        C  0.26751144  0.10010064  0.23504634    -0.33500
C690        C  0.26060374  0.07756774  0.24412905     0.16900
O691        O  0.23903811  0.05223044  0.26721612    -0.25500
C692        C  0.25153384  0.04028029  0.25077887     0.06700
C693        C  0.26524934  0.05510718  0.23588253    -0.30400
O694        O  0.26157827  0.14268551  0.24103814    -0.22200
C695        C  0.24852612  0.15471335  0.25695168    -0.02200
C696        C  0.23642319  0.13988814  0.27326870    -0.16600
H697        H  0.22306203  0.09283773  0.29021477     0.21300
H698        H  0.27912879  0.10204563  0.21948835     0.19700
H699        H  0.27537500  0.05021124  0.22002073     0.19700
H700        H  0.22461422  0.14499359  0.28785626     0.15500
C701        C  0.32130059  0.00909940  0.25670370     0.31000
C702        C  0.34027240  0.02040964  0.26890391    -0.35400
C703        C  0.36344606  0.01121717  0.26461730     0.17000
C704        C  0.36757390  0.99229330  0.24934950     0.22800
C705        C  0.34871026  0.98122699  0.23703368    -0.33500
C706        C  0.32564970  0.99032347  0.24133128     0.16900
O707        O  0.29816113  0.01421338  0.25840584    -0.25500
C708        C  0.28759807  0.99841182  0.24396677     0.06700
C709        C  0.30395087  0.98332099  0.23266592    -0.30400
O710        O  0.39045262  0.98635837  0.24800016    -0.22200
C711        C  0.40142148  0.00170174  0.26249516    -0.02200
C712        C  0.38542482  0.01759107  0.27341450    -0.16600
H713        H  0.33716719  0.03517270  0.28102127     0.21300
H714        H  0.35178987  0.96635812  0.22504403     0.19700
H715        H  0.30057794  0.96930337  0.21982122     0.19700
H716        H  0.38944986  0.03174026  0.28596772     0.15500
C717        C  0.61378172  0.98882572  0.27098561     0.31000
C718        C  0.63446538  0.97702507  0.27910661    -0.35400
C719        C  0.65649685  0.98669272  0.27121121     0.17000
C720        C  0.65808551  0.00671367  0.25649517     0.22800
C721        C  0.63741442  0.01854594  0.24844307    -0.33500
C722        C  0.61539831  0.00882100  0.25624869     0.16900
O723        O  0.59134648  0.98287119  0.27612248    -0.25500
C724        C  0.57842209  0.99939104  0.26467577     0.06700
C725        C  0.59245634  0.01591307  0.25191711    -0.30400
O726        O  0.68049116  0.01281692  0.25147472    -0.22200
C727        C  0.69343510  0.99633318  0.26290987    -0.02200
C728        C  0.67946688  0.97968345  0.27562149    -0.16600
H729        H  0.63345342  0.96138827  0.29074294     0.21300
H730        H  0.63842895  0.03425897  0.23691206     0.19700
H731        H  0.58653959  0.03097212  0.24110645     0.19700
H732        H  0.68527255  0.96494185  0.28689576     0.15500
C733        C  0.50059946  0.87757388  0.26894920     0.31000
C734        C  0.51204275  0.85703071  0.27806200    -0.35400
C735        C  0.50400136  0.83493891  0.26911704     0.17000
C736        C  0.48611539  0.83317591  0.25220827     0.22800
C737        C  0.47470602  0.85371810  0.24311600    -0.33500
C738        C  0.48254934  0.87577884  0.25222848     0.16900
O739        O  0.50511596  0.90002039  0.27487628    -0.25500
C740        C  0.48953141  0.91275905  0.26201306     0.06700
C741        C  0.47513253  0.89860487  0.24749689    -0.30400
O742        O  0.48130595  0.81073702  0.24643826    -0.22200
C743        C  0.49630107  0.79790327  0.25983026    -0.02200
C744        C  0.51074185  0.81203990  0.27444431    -0.16600
H745        H  0.52610462  0.85817734  0.29130926     0.21300
H746        H  0.46054364  0.85256444  0.22998585     0.19700
H747        H  0.46139439  0.90437248  0.23511133     0.19700
H748        H  0.52396344  0.80638080  0.28741121     0.15500
C749        C  0.27284377  0.37358330  0.25115448     0.31000
C750        C  0.28476582  0.39418001  0.25929131    -0.35400
C751        C  0.27662603  0.41619555  0.25000540     0.17000
C752        C  0.25816631  0.41790030  0.23368248     0.22800
C753        C  0.24650837  0.39727726  0.22530809    -0.33500
C754        C  0.25446883  0.37530878  0.23475708     0.16900
O755        O  0.27614987  0.35133679  0.25884845    -0.25500
C756        C  0.25961902  0.33870976  0.24721641     0.06700
C757        C  0.24570503  0.35270534  0.23196804    -0.30400
O758        O  0.25124119  0.44027772  0.22996172    -0.22200
C759        C  0.26547721  0.45311397  0.24402125    -0.02200
C760        C  0.28169478  0.43903841  0.25675735    -0.16600
H761        H  0.29853485  0.39321350  0.27286604     0.21300
H762        H  0.23134486  0.39836443  0.21332416     0.19700
H763        H  0.23078913  0.34711035  0.22097551     0.19700
H764        H  0.29362723  0.44463174  0.27091795     0.15500
C765        C  0.24182288  0.50100949  0.17573674     0.31000
C766        C  0.22789944  0.50433968  0.15501398    -0.35400
C767        C  0.23995246  0.50200368  0.13288581     0.17000
C768        C  0.26413076  0.49699363  0.13119284     0.22800
C769        C  0.27802334  0.49339450  0.15192679    -0.33500
C770        C  0.26590736  0.49540835  0.17408326     0.16900
O771        O  0.23417934  0.50236130  0.19821905    -0.25500
C772        C  0.25353397  0.49714811  0.21111769     0.06700
C773        C  0.27379373  0.49260513  0.19712947    -0.30400
O774        O  0.27176741  0.49594710  0.10866565    -0.22200
C775        C  0.25222033  0.50035846  0.09566618    -0.02200
C776        C  0.23185675  0.50395381  0.10987745    -0.16600
H777        H  0.20894125  0.50841748  0.15606868     0.21300
H778        H  0.29695902  0.48922095  0.15085914     0.19700
H779        H  0.29167693  0.48814151  0.20311694     0.19700
H780        H  0.21372058  0.50752871  0.10403764     0.15500
C781        C  0.26511085  0.25194839  0.12856749     0.31000
C782        C  0.28065341  0.24940049  0.10892827    -0.35400
C783        C  0.27234216  0.25824598  0.08693629     0.17000
C784        C  0.25007013  0.26862364  0.08416640     0.22800
C785        C  0.23462366  0.27164278  0.10402500    -0.33500
C786        C  0.24306826  0.26291690  0.12619256     0.16900
O787        O  0.26935865  0.24469659  0.15069268    -0.25500
C788        C  0.24990382  0.25125001  0.16288321     0.06700
C789        C  0.23287413  0.26264910  0.14856442    -0.30400
O790        O  0.24464897  0.27215241  0.06130898    -0.22200
C791        C  0.26391043  0.26428076  0.04944610    -0.02200
C792        C  0.28169619  0.25572270  0.06459930    -0.16600
H793        H  0.29779234  0.24046177  0.11054335     0.21300
H794        H  0.21693845  0.27939034  0.10217841     0.19700
H795        H  0.21573610  0.27003186  0.15395950     0.19700
H796        H  0.29787251  0.24617890  0.05966974     0.15500
C797        C  0.25302539  0.33161031  0.01465721     0.31000
C798        C  0.24507224  0.35170242  0.02749406    -0.35400
C799        C  0.24988496  0.37422555  0.01696256     0.17000
C800        C  0.26187220  0.37687178  0.99536796     0.22800
C801        C  0.26958912  0.35674206  0.98235024    -0.33500
C802        C  0.26463798  0.33416510  0.99282032     0.16900
O803        O  0.25078076  0.30894212  0.02145052    -0.25500
C804        C  0.26085664  0.29667775  0.00363962     0.06700
C805        C  0.26985067  0.31147875  0.98530203    -0.30400
O806        O  0.26504379  0.39965599  0.98924309    -0.22200
C807        C  0.25494534  0.41189364  0.00715040    -0.02200
C808        C  0.24491347  0.39683109  0.02470731    -0.16600
H809        H  0.23593545  0.34990045  0.04462812     0.21300
H810        H  0.27895895  0.35855899  0.96534119     0.19700
H811        H  0.27939283  0.30649253  0.96914405     0.19700
H812        H  0.23536304  0.40180553  0.04088882     0.15500
C813        C  0.26330697  0.48838283  0.88392256     0.31000
C814        C  0.27351543  0.47644966  0.86423018    -0.35400
C815        C  0.26644087  0.48455193  0.84142027     0.17000
C816        C  0.25037183  0.50307484  0.83819991     0.22800
C817        C  0.24009476  0.51492416  0.85788559    -0.33500
C818        C  0.24724745  0.50689580  0.88068259     0.16900
O819        O  0.26753583  0.48390711  0.90681185    -0.25500
C820        C  0.25416539  0.49990043  0.91846444     0.06700
C821        C  0.24102701  0.51455483  0.90304567    -0.30400
O822        O  0.24674897  0.50814394  0.81533426    -0.22200
C823        C  0.26061902  0.49261962  0.80370084    -0.02200
C824        C  0.27335359  0.47751285  0.81904258    -0.16600
H825        H  0.28624937  0.46200042  0.86652843     0.21300
H826        H  0.22759358  0.52957257  0.85557931     0.19700
H827        H  0.22856406  0.52865927  0.90768830     0.19700
H828        H  0.28637787  0.46390303  0.81451544     0.15500
C829        C  0.23643728  0.66986634  0.00929633     0.31000
C830        C  0.24698862  0.65101782  0.02244575    -0.35400
C831        C  0.24438155  0.62781752  0.01297547     0.17000
C832        C  0.23216713  0.62342741  0.99204780     0.22800
C833        C  0.22199850  0.64231741  0.97864943    -0.33500
C834        C  0.22465977  0.66552465  0.98807741     0.16900
O835        O  0.23547007  0.69269333  0.01560129    -0.25500
C836        C  0.22316830  0.70326104  0.99803789     0.06700
C837        C  0.21599476  0.68715746  0.98040159    -0.30400
O838        O  0.23112973  0.60029603  0.98696466    -0.22200
C839        C  0.24289916  0.58950903  0.00483514    -0.02200
C840        C  0.25178029  0.60595385  0.02137780    -0.16600
H841        H  0.25614223  0.65415871  0.03919431     0.21300
H842        H  0.21227042  0.63909124  0.96224379     0.19700
H843        H  0.20492145  0.69054256  0.96488461     0.19700
H844        H  0.26220582  0.60234612  0.03730493     0.15500
C845        C  0.13122620  0.26005956  0.74457629     0.31000
C846        C  0.11153911  0.27505575  0.74859805    -0.35400
C847        C  0.08937346  0.26663390  0.74046172     0.17000
C848        C  0.08655833  0.24486430  0.72918663     0.22800
C849        C  0.10647860  0.23011203  0.72447858    -0.33500
C850        C  0.12878544  0.23856876  0.73267741     0.16900
O851        O  0.15324513  0.26384637  0.75215106    -0.25500
C852        C  0.16528785  0.24462546  0.74496505     0.06700
C853        C  0.15104171  0.22832482  0.73255619    -0.30400
O854        O  0.06368649  0.23905565  0.72644288    -0.22200
C855        C  0.05182732  0.25759948  0.73564119    -0.02200
C856        C  0.06700210  0.27524352  0.74448723    -0.16600
H857        H  0.11320160  0.29163849  0.75843799     0.21300
H858        H  0.10454772  0.21273275  0.71616742     0.19700
H859        H  0.15625816  0.21131330  0.72490952     0.19700
H860        H  0.06214418  0.29093918  0.75473986     0.15500
C861        C  0.23796574  0.25694410  0.62691837     0.31000
C862        C  0.22847892  0.24979413  0.60474296    -0.35400
C863        C  0.23353604  0.26498586  0.58502019     0.17000
C864        C  0.24701597  0.28570750  0.58708835     0.22800
C865        C  0.25592791  0.29313067  0.60925509    -0.33500
C866        C  0.25101598  0.27794040  0.62882033     0.16900
O867        O  0.23690012  0.24481085  0.64742425    -0.25500
C868        C  0.24952632  0.25827441  0.66250369     0.06700
C869        C  0.25858732  0.27910331  0.65187434    -0.30400
O870        O  0.25243205  0.29547666  0.56614992    -0.22200
C871        C  0.24201855  0.28114860  0.55032720    -0.02200
C872        C  0.22974722  0.26198096  0.56102676    -0.16600
H873        H  0.21880251  0.23304725  0.60279190     0.21300
H874        H  0.26704096  0.30900788  0.61090114     0.19700
H875        H  0.26952226  0.29293350  0.65991821     0.19700
H876        H  0.22146176  0.24679444  0.55232549     0.15500
C877        C  0.26282841  0.41341526  0.78039810     0.31000
C878        C  0.25030198  0.39288370  0.78865124    -0.35400
C879        C  0.25801216  0.37077290  0.77929682     0.17000
C880        C  0.27687406  0.36909130  0.76318809     0.22800
C881        C  0.28958128  0.38940928  0.75535321    -0.33500
C882        C  0.28181602  0.41135793  0.76450257     0.16900
O883        O  0.25677968  0.43608202  0.78401224    -0.25500
C884        C  0.27226704  0.44851458  0.77034714     0.06700
C885        C  0.28826118  0.43396860  0.75800896    -0.30400
O886        O  0.28017984  0.34711574  0.75541510    -0.22200
C887        C  0.26326539  0.33431810  0.76660333    -0.02200
C888        C  0.24891868  0.34803761  0.78181745    -0.16600
H889        H  0.23488223  0.39416609  0.80049768     0.21300
H890        H  0.30381249  0.38829688  0.74207723     0.19700
H891        H  0.30126396  0.43925256  0.74439836     0.19700
H892        H  0.23368723  0.34222620  0.79259277     0.15500
C893        C  0.25340903  0.26247119  0.92459421     0.31000
C894        C  0.23849603  0.26342195  0.90437510    -0.35400
C895        C  0.24876109  0.25566692  0.88266839     0.17000
C896        C  0.27206894  0.24750776  0.88093657     0.22800
C897        C  0.28701769  0.24676703  0.90106733    -0.33500
C898        C  0.27679536  0.25457034  0.92271034     0.16900
O899        O  0.24682511  0.26632674  0.94708665    -0.25500
C900        C  0.26638221  0.26115284  0.95969114     0.06700
C901        C  0.28549807  0.25375576  0.94540150    -0.30400
O902        O  0.27791671  0.24089017  0.85895689    -0.22200
C903        C  0.25810379  0.24489866  0.84635296    -0.02200
C904        C  0.23940154  0.25411034  0.86020693    -0.16600
H905        H  0.21997979  0.26912949  0.90560611     0.21300
H906        H  0.30519830  0.24004232  0.90004914     0.19700
H907        H  0.30251963  0.24648971  0.95119077     0.19700
H908        H  0.22162926  0.25928970  0.85444419     0.15500
C909        C  0.42977313  0.22603374  0.73215253     0.31000
C910        C  0.41154186  0.21856477  0.74830355    -0.35400
C911        C  0.38831433  0.22749534  0.74380267     0.17000
C912        C  0.38349677  0.24262397  0.72470877     0.22800
C913        C  0.40152719  0.24973950  0.70848515    -0.33500
C914        C  0.42455836  0.24090182  0.71298410     0.16900
O915        O  0.45310626  0.22176353  0.73392155    -0.25500
C916        C  0.46276793  0.23405235  0.71555003     0.06700
C917        C  0.44572770  0.24605482  0.70190758    -0.30400
O918        O  0.36086506  0.24937807  0.72401618    -0.22200
C919        C  0.35073086  0.23843185  0.74284793    -0.02200
C920        C  0.36696298  0.22450860  0.75587520    -0.16600
H921        H  0.41530645  0.20717602  0.76364026     0.21300
H922        H  0.39795271  0.26187096  0.69367007     0.19700
H923        H  0.44866749  0.25806650  0.68678607     0.19700
H924        H  0.36352071  0.21378262  0.77182891     0.15500
C925        C  0.51506428  0.16357722  0.73490735     0.31000
C926        C  0.52682126  0.14361648  0.74486873    -0.35400
C927        C  0.51670282  0.12109223  0.73986002     0.17000
C928        C  0.49647783  0.11838972  0.72597438     0.22800
C929        C  0.48467142  0.13830161  0.71614421    -0.33500
C930        C  0.49468962  0.16078239  0.72124287     0.16900
O931        O  0.52190177  0.18624926  0.73639128    -0.25500
C932        C  0.50543223  0.19808526  0.72381242     0.06700
C933        C  0.48816844  0.18311133  0.71388036    -0.30400
O934        O  0.49021640  0.09572957  0.72337682    -0.22200
C935        C  0.50664450  0.08364689  0.73574063    -0.02200
C936        C  0.52352326  0.09854970  0.74647629    -0.16600
H937        H  0.54286593  0.14548991  0.75553590     0.21300
H938        H  0.46887076  0.13639067  0.70512488     0.19700
H939        H  0.47365181  0.18779276  0.70195570     0.19700
H940        H  0.53851639  0.09346657  0.75764365     0.15500
C941        C  0.27594681  0.07112571  0.74429527     0.31000
C942        C  0.28260756  0.09034820  0.75912361    -0.35400
C943        C  0.27415499  0.11316977  0.75227696     0.17000
C944        C  0.26024953  0.11674270  0.73217669     0.22800
C945        C  0.25384017  0.09767408  0.71729509    -0.33500
C946        C  0.26215973  0.07496917  0.72416357     0.16900
O947        O  0.27942556  0.04801543  0.74867163    -0.25500
C948        C  0.26773811  0.03703942  0.73105878     0.06700
C949        C  0.25682756  0.05298815  0.71527493    -0.30400
O950        O  0.25372627  0.13927785  0.72934328    -0.22200
C951        C  0.26355745  0.15049875  0.74781854    -0.02200
C952        C  0.27651387  0.13515839  0.76275248    -0.16600
H953        H  0.29288422  0.08758687  0.77531172     0.21300
H954        H  0.24246594  0.10025497  0.70183021     0.19700
H955        H  0.24485189  0.04887013  0.70065133     0.19700
H956        H  0.28625027  0.13958001  0.77886672     0.15500
C957        C  0.38067485  0.98888272  0.75067145     0.31000
C958        C  0.35972908  0.97900063  0.76094160    -0.35400
C959        C  0.33797117  0.98672597  0.75104812     0.17000
C960        C  0.33688372  0.00311188  0.73235673     0.22800
C961        C  0.35782613  0.01303745  0.72211342    -0.33500
C962        C  0.37958466  0.00532066  0.73203346     0.16900
O963        O  0.40292388  0.98386674  0.75686885    -0.25500
C964        C  0.41628874  0.99741816  0.74215024     0.06700
C965        C  0.40271925  0.01111583  0.72627312    -0.30400
O966        O  0.31465830  0.00765633  0.72577824    -0.22200
C967        C  0.30136673  0.99389179  0.74035782    -0.02200
C968        C  0.31487108  0.98055343  0.75656025    -0.16600
H969        H  0.36036072  0.96606924  0.77552948     0.21300
H970        H  0.35719894  0.02579638  0.70737249     0.19700
H971        H  0.40905907  0.02327862  0.71233504     0.19700
H972        H  0.30864835  0.96823558  0.77039741     0.15500
C973        C  0.51106776  0.82761182  0.74681308     0.31000
C974        C  0.52224504  0.84760886  0.73589983    -0.35400
C975        C  0.51235187  0.87007467  0.74137610     0.17000
C976        C  0.49289471  0.87269078  0.75660212     0.22800
C977        C  0.48164566  0.85272357  0.76735290    -0.33500
C978        C  0.49140920  0.83027935  0.76177804     0.16900
O979        O  0.51772749  0.80498407  0.74486966    -0.25500
C980        C  0.50193459  0.79304380  0.75856069     0.06700
C981        C  0.48514778  0.80786327  0.76952282    -0.30400
O982        O  0.48703016  0.89534647  0.75982278    -0.22200
C983        C  0.50294673  0.90749369  0.74651936    -0.02200
C984        C  0.51902556  0.89266099  0.73445898    -0.16600
H985        H  0.53773214  0.84580560  0.72421379     0.21300
H986        H  0.46648260  0.85457920  0.77944489     0.19700
H987        H  0.47096685  0.80299963  0.78203478     0.19700
H988        H  0.53372162  0.89785760  0.72267146     0.15500
C989        C  0.62828038  0.00538932  0.75238362     0.31000
C990        C  0.64867681  0.01733733  0.76105926    -0.35400
C991        C  0.67095159  0.00891092  0.75275673     0.17000
C992        C  0.67300079  0.99002013  0.73703211     0.22800
C993        C  0.65263549  0.97795346  0.72853239    -0.33500
C994        C  0.63038880  0.98633819  0.73685734     0.16900
O995        O  0.60568594  0.01063711  0.75729346    -0.25500
C996        C  0.59315367  0.99454965  0.74496918     0.06700
C997        C  0.60761299  0.97899145  0.73190916    -0.30400
O998        O  0.69552886  0.98505777  0.73165043    -0.22200
C999        C  0.70812335  0.00102112  0.74397596    -0.02200
C1000       C  0.69379060  0.01621627  0.75762829    -0.16600
H1001       H  0.64727203  0.03224877  0.77330260     0.21300
H1002       H  0.65404335  0.96308896  0.71623370     0.19700
H1003       H  0.60206803  0.96472654  0.72008434     0.19700
H1004       H  0.69927156  0.02996728  0.77001584     0.15500
C1005       C  0.73237170  0.08101183  0.74441958     0.31000
C1006       C  0.72463472  0.10159365  0.75650754    -0.35400
C1007       C  0.73476965  0.12339310  0.74862632     0.17000
C1008       C  0.75103657  0.12491857  0.72984922     0.22800
C1009       C  0.75830985  0.10444664  0.71739326    -0.33500
C1010       C  0.74845115  0.08264773  0.72549267     0.16900
O1011       O  0.72839940  0.05861552  0.75130922    -0.25500
C1012       C  0.74189539  0.04577666  0.73645908     0.06700
C1013       C  0.75461192  0.05983419  0.71996701    -0.30400
O1014       O  0.75935224  0.14687609  0.72644674    -0.22200
C1015       C  0.74836103  0.15957341  0.74334403    -0.02200
C1016       C  0.73279937  0.14592457  0.75762183    -0.16600
H1017       H  0.71273945  0.10052660  0.77193135     0.21300
H1018       H  0.77175025  0.10529193  0.70327441     0.19700
H1019       H  0.76843809  0.05415674  0.70751285     0.19700
H1020       H  0.72185358  0.15173500  0.77259853     0.15500
C1021       C  0.77359520  0.25732867  0.62060692     0.31000
C1022       C  0.78375616  0.24839354  0.59934008    -0.35400
C1023       C  0.77647867  0.25965123  0.57798218     0.17000
C1024       C  0.76031281  0.27836132  0.57771306     0.22800
C1025       C  0.75041172  0.28747204  0.59891279    -0.33500
C1026       C  0.75763540  0.27621727  0.62017314     0.16900
O1027       O  0.77668978  0.24861685  0.64245031    -0.25500
C1028       C  0.76252536  0.26213610  0.65609018     0.06700
C1029       C  0.75030661  0.27964371  0.64319341    -0.30400
O1030       O  0.75401576  0.28456478  0.55587518    -0.22200
C1031       C  0.76646886  0.26993356  0.54180325    -0.02200
C1032       C  0.78085337  0.25401362  0.55455436    -0.16600
H1033       H  0.79577217  0.23317511  0.59938317     0.21300
H1034       H  0.73721348  0.30168378  0.59875482     0.19700
H1035       H  0.73741673  0.29256510  0.64975593     0.19700
H1036       H  0.79124285  0.23915147  0.54772421     0.15500
C1037       C  0.63197979  0.23618328  0.72132009     0.31000
C1038       C  0.61432750  0.23646833  0.70363044    -0.35400
C1039       C  0.59113021  0.23014614  0.71117795     0.17000
C1040       C  0.58546950  0.22396821  0.73458926     0.22800
C1041       C  0.60339415  0.22300710  0.75226708    -0.33500
C1042       C  0.62674680  0.22937614  0.74466671     0.16900
O1043       O  0.65442425  0.24309801  0.71833907    -0.25500
C1044       C  0.66393758  0.24051112  0.73996981     0.06700
C1045       C  0.64764267  0.23186218  0.75711133    -0.30400
O1046       O  0.56198787  0.22252994  0.73826820    -0.22200
C1047       C  0.55265338  0.22759407  0.71685022    -0.02200
C1048       C  0.57004408  0.23223387  0.69939743    -0.16600
H1049       H  0.61818329  0.24242632  0.68546072     0.21300
H1050       H  0.59921585  0.21889581  0.77085488     0.19700
H1051       H  0.65065675  0.22842727  0.77599566     0.19700
H1052       H  0.56739955  0.23902188  0.68134806     0.15500
C1053       C  0.88289243  0.26558980  0.74580622     0.31000
C1054       C  0.90295427  0.27970898  0.75104704    -0.35400
C1055       C  0.92494711  0.27158008  0.74203774     0.17000
C1056       C  0.92729987  0.25084611  0.72886101     0.22800
C1057       C  0.90704953  0.23682082  0.72328657    -0.33500
C1058       C  0.88490831  0.24501811  0.73231968     0.16900
O1059       O  0.86068538  0.26986690  0.75275420    -0.25500
C1060       C  0.84812173  0.25188799  0.74355248     0.06700
C1061       C  0.86224121  0.23578576  0.73070035    -0.30400
O1062       O  0.95005877  0.24509820  0.72508237    -0.22200
C1063       C  0.96225767  0.26251185  0.73589442    -0.02200
C1064       C  0.94746976  0.27953825  0.74641319    -0.16600
H1065       H  0.90161019  0.29558833  0.76202423     0.21300
H1066       H  0.90854699  0.22026262  0.71338464     0.19700
H1067       H  0.85655992  0.21987558  0.72125004     0.19700
H1068       H  0.95263517  0.29424312  0.75788071     0.15500
C1069       C  0.73649898  0.12098697  0.26530618     0.31000
C1070       C  0.73795244  0.10124671  0.28094735    -0.35400
C1071       C  0.73037114  0.07919145  0.27174729     0.17000
C1072       C  0.72210395  0.07654974  0.24863105     0.22800
C1073       C  0.72016585  0.09647641  0.23309190    -0.33500
C1074       C  0.72765092  0.11865034  0.24237288     0.16900
O1075       O  0.74351934  0.14305271  0.26999242    -0.25500
C1076       C  0.73893945  0.15517681  0.24989559     0.06700
C1077       C  0.72897261  0.14095074  0.23208150    -0.30400
O1078       O  0.71946710  0.05374965  0.24273273    -0.22200
C1079       C  0.72573838  0.04175009  0.26248319    -0.02200
C1080       C  0.73251580  0.05673169  0.28106608    -0.16600
H1081       H  0.74535878  0.10280979  0.29876970     0.21300
H1082       H  0.71425927  0.09465759  0.21473920     0.19700
H1083       H  0.72362396  0.14626341  0.21418080     0.19700
H1084       H  0.74064246  0.05166323  0.29794661     0.15500
C1085       C  0.76515586  0.24389499  0.37477395     0.31000
C1086       C  0.77059040  0.23165735  0.39618212    -0.35400
C1087       C  0.77046097  0.24558073  0.41704943     0.17000
C1088       C  0.76555622  0.26984284  0.41671488     0.22800
C1089       C  0.75990621  0.28197143  0.39541952    -0.33500
C1090       C  0.75972450  0.26805186  0.37469734     0.16900
O1091       O  0.76357680  0.23441078  0.35325716    -0.25500
C1092       C  0.75669728  0.25270081  0.33944065     0.06700
C1093       C  0.75392892  0.27403178  0.35180603    -0.30400
O1094       O  0.76415642  0.27893779  0.43832862    -0.22200
C1095       C  0.76849376  0.26046585  0.45287890    -0.02200
C1096       C  0.77215903  0.23910374  0.44063127    -0.16600
H1097       H  0.77393913  0.21253381  0.39663151     0.21300
H1098       H  0.75508174  0.30077463  0.39518271     0.19700
H1099       H  0.74854234  0.29139711  0.34488453     0.19700
H1100       H  0.77334145  0.22111161  0.44801070     0.15500
C1101       C  0.62255935  0.23960997  0.27190587     0.31000
C1102       C  0.60378645  0.24052932  0.28867501    -0.35400
C1103       C  0.58084626  0.23568056  0.27986328     0.17000
C1104       C  0.57649620  0.23063095  0.25608556     0.22800
C1105       C  0.59540634  0.22928062  0.23932020    -0.33500
C1106       C  0.61847867  0.23388014  0.24822390     0.16900
O1107       O  0.64527891  0.24429341  0.27621555    -0.25500
C1108       C  0.65602444  0.24125052  0.25511458     0.06700
C1109       C  0.64029196  0.23472871  0.23698518    -0.30400
O1110       O  0.55332483  0.22995409  0.25127968    -0.22200
C1111       C  0.54280013  0.23403249  0.27238458    -0.02200
C1112       C  0.55910698  0.23767889  0.29073475    -0.16600
H1113       H  0.60677168  0.24542664  0.30717006     0.21300
H1114       H  0.59227179  0.22576446  0.22053115     0.19700
H1115       H  0.64432869  0.23139158  0.21828153     0.19700
H1116       H  0.55541499  0.24347040  0.30888105     0.15500
C1117       C  0.87304364  0.26648804  0.26030979     0.31000
C1118       C  0.89222286  0.28277208  0.26015721    -0.35400
C1119       C  0.91474950  0.27322145  0.26557470     0.17000
C1120       C  0.91833368  0.24920578  0.27062904     0.22800
C1121       C  0.89895667  0.23293577  0.27133760    -0.33500
C1122       C  0.87630515  0.24255683  0.26599290     0.16900
O1123       O  0.85075278  0.27146430  0.25448214    -0.25500
C1124       C  0.83941249  0.25052635  0.25662137     0.06700
C1125       C  0.85434813  0.23185674  0.26385902    -0.30400
O1126       O  0.94136313  0.24362910  0.27126109    -0.22200
C1127       C  0.95255452  0.26442786  0.26698442    -0.02200
C1128       C  0.93682938  0.28338999  0.26347127    -0.16600
H1129       H  0.88991195  0.30141572  0.25507912     0.21300
H1130       H  0.90152673  0.21393982  0.27459346     0.19700
H1131       H  0.84974427  0.21315663  0.26678403     0.19700
H1132       H  0.94108399  0.30135698  0.25715414     0.15500
C1133       C  0.71511323  0.41641770  0.23952472     0.31000
C1134       C  0.70691422  0.39483856  0.24970608    -0.35400
C1135       C  0.71942269  0.37423539  0.24305566     0.17000
C1136       C  0.73858990  0.37467222  0.22721700     0.22800
C1137       C  0.74654082  0.39634870  0.21659291    -0.33500
C1138       C  0.73411983  0.41714677  0.22349204     0.16900
O1139       O  0.70772325  0.43786292  0.24560736    -0.25500
C1140       C  0.72185840  0.45277759  0.23321503     0.06700
C1141       C  0.73871564  0.44093954  0.21903703    -0.30400
O1142       O  0.74867592  0.35336018  0.22500899    -0.22200
C1143       C  0.73577114  0.33926637  0.23969786    -0.02200
C1144       C  0.71726914  0.35130574  0.25124444    -0.16600
H1145       H  0.69254314  0.39432614  0.26289041     0.21300
H1146       H  0.76199131  0.39708602  0.20471192     0.19700
H1147       H  0.75334378  0.44866901  0.20862576     0.19700
H1148       H  0.70454621  0.34431163  0.26434945     0.15500
C1149       C  0.73038150  0.48993600  0.11819928     0.31000
C1150       C  0.72013990  0.47800306  0.13805813    -0.35400
C1151       C  0.72550916  0.48754475  0.16058475     0.17000
C1152       C  0.73997913  0.50746557  0.16342341     0.22800
C1153       C  0.75020763  0.51946025  0.14353526    -0.33500
C1154       C  0.74479200  0.50992370  0.12096789     0.16900
O1155       O  0.72761113  0.48409059  0.09552484    -0.25500
C1156       C  0.74028714  0.50061210  0.08352074     0.06700
C1157       C  0.75143637  0.51713967  0.09843865    -0.30400
O1158       O  0.74230281  0.51346594  0.18613283    -0.22200
C1159       C  0.72929214  0.49708682  0.19799424    -0.02200
C1160       C  0.71824107  0.48062097  0.18297292    -0.16600
H1161       H  0.70869042  0.46241468  0.13607101     0.21300
H1162       H  0.76146612  0.53519000  0.14551435     0.19700
H1163       H  0.76278378  0.53219337  0.09335577     0.19700
H1164       H  0.70612935  0.46608205  0.18771396     0.15500
C1165       C  0.75930794  0.26614277  0.12225124     0.31000
C1166       C  0.77084844  0.27625949  0.10204522    -0.35400
C1167       C  0.75953366  0.27252576  0.07995149     0.17000
C1168       C  0.73835941  0.25971538  0.07806085     0.22800
C1169       C  0.72665562  0.25002484  0.09822757    -0.33500
C1170       C  0.73803907  0.25356666  0.12014667     0.16900
O1171       O  0.76704654  0.26657360  0.14455204    -0.25500
C1172       C  0.75054896  0.25396265  0.15669061     0.06700
C1173       C  0.73212550  0.24542899  0.14241988    -0.30400
O1174       O  0.73282001  0.25511789  0.05572841    -0.22200
C1175       C  0.75034655  0.26538184  0.04297927    -0.02200
C1176       C  0.76742883  0.27672932  0.05703382    -0.16600
H1177       H  0.78792931  0.28547012  0.10333556     0.21300
H1178       H  0.71046871  0.23933394  0.09676041     0.19700
H1179       H  0.71650319  0.23499612  0.14775813     0.19700
H1180       H  0.78456844  0.28414802  0.05137252     0.15500
C1181       C  0.74386532  0.25482609  0.87585508     0.31000
C1182       C  0.73069017  0.25120121  0.89711840    -0.35400
C1183       C  0.74203273  0.25832237  0.91828813     0.17000
C1184       C  0.76479064  0.26824973  0.91860219     0.22800
C1185       C  0.77777357  0.27225488  0.89730590    -0.33500
C1186       C  0.76643379  0.26516406  0.87614287     0.16900
O1187       O  0.73720785  0.24863661  0.85408624    -0.25500
C1188       C  0.75574790  0.25521771  0.84030223     0.06700
C1189       C  0.77436775  0.26566919  0.85304847    -0.30400
O1190       O  0.77302501  0.27090627  0.94054975    -0.22200
C1191       C  0.75513505  0.26299008  0.95443317    -0.02200
C1192       C  0.73544608  0.25494295  0.94156364    -0.16600
H1193       H  0.71318630  0.24268508  0.89723937     0.21300
H1194       H  0.79582451  0.27952057  0.89730810     0.19700
H1195       H  0.79135538  0.27248731  0.84625802     0.19700
H1196       H  0.71953716  0.24589213  0.94839811     0.15500
C1197       C  0.74646385  0.33297274  0.00598669     0.31000
C1198       C  0.73585169  0.35338653  0.01608826    -0.35400
C1199       C  0.74295658  0.37559288  0.00620458     0.17000
C1200       C  0.75945019  0.37767341  0.98769759     0.22800
C1201       C  0.77004555  0.35723464  0.97753762    -0.33500
C1202       C  0.76282892  0.33498304  0.98733564     0.16900
O1203       O  0.74245253  0.31045915  0.01253082    -0.25500
C1204       C  0.75622723  0.29784655  0.99768724     0.06700
C1205       C  0.76941754  0.31214878  0.98170523    -0.30400
O1206       O  0.76365546  0.40026558  0.98146146    -0.22200
C1207       C  0.74974040  0.41285028  0.99626328    -0.02200
C1208       C  0.73632533  0.39835344  0.01188774    -0.16600
H1209       H  0.72296588  0.35205226  0.03067798     0.21300
H1210       H  0.78301086  0.35858018  0.96301800     0.19700
H1211       H  0.78232150  0.30664349  0.96827892     0.19700
H1212       H  0.72365609  0.40387006  0.02557237     0.15500
C1213       C  0.74781248  0.42186593  0.77102496     0.31000
C1214       C  0.75895793  0.40116516  0.78009841    -0.35400
C1215       C  0.75128008  0.37928677  0.77040284     0.17000
C1216       C  0.73346865  0.37781246  0.75337320     0.22800
C1217       C  0.72194097  0.39840245  0.74474693    -0.33500
C1218       C  0.72994537  0.42026578  0.75404810     0.16900
O1219       O  0.75506739  0.44418915  0.77431018    -0.25500
C1220       C  0.74165184  0.45693822  0.75925911     0.06700
C1221       C  0.72563390  0.44300021  0.74637437    -0.30400
O1222       O  0.73048879  0.35583943  0.74530206    -0.22200
C1223       C  0.74667780  0.34304431  0.75720955    -0.02200
C1224       C  0.76007805  0.35666497  0.77314077    -0.16600
H1225       H  0.77376166  0.40216869  0.79252327     0.21300
H1226       H  0.70880037  0.39756417  0.73056437     0.19700
H1227       H  0.71442657  0.44856060  0.73155704     0.19700
H1228       H  0.77466021  0.35085823  0.78450617     0.15500
C1229       C  0.76102998  0.50585049  0.82729242     0.31000
C1230       C  0.77358425  0.51147774  0.84828508    -0.35400
C1231       C  0.76178620  0.50613258  0.87004922     0.17000
C1232       C  0.73908230  0.49618461  0.87113057     0.22800
C1233       C  0.72670143  0.49011003  0.85013618    -0.33500
C1234       C  0.73859899  0.49520765  0.82834798     0.16900
O1235       O  0.76858769  0.50955167  0.80505045    -0.25500
C1236       C  0.75089470  0.50087091  0.79172762     0.06700
C1237       C  0.73181288  0.49158775  0.80517575    -0.30400
O1238       O  0.73118745  0.49337920  0.89339574    -0.22200
C1239       C  0.74912578  0.50149177  0.90683071    -0.02200
C1240       C  0.76874994  0.50935635  0.89319251    -0.16600
H1241       H  0.79128571  0.51955616  0.84768908     0.21300
H1242       H  0.70898771  0.48206011  0.85074543     0.19700
H1243       H  0.71536939  0.48354696  0.79877783     0.19700
H1244       H  0.78562202  0.51657502  0.89947059     0.15500
C1245       C  0.73768506  0.62561803  0.98741968     0.31000
C1246       C  0.73081137  0.64725008  0.97635628    -0.35400
C1247       C  0.73986340  0.66835929  0.98658707     0.17000
C1248       C  0.75465138  0.66822463  0.00635369     0.22800
C1249       C  0.76133584  0.64661828  0.01754326    -0.33500
C1250       C  0.75228297  0.62553742  0.00731955     0.16900
O1251       O  0.73186487  0.60374734  0.98048859    -0.25500
C1252       C  0.74279435  0.58946468  0.99625176     0.06700
C1253       C  0.75570792  0.60209530  0.01335556    -0.30400
O1254       O  0.76136575  0.69000910  0.01267602    -0.22200
C1255       C  0.75083040  0.70427633  0.99666709    -0.02200
C1256       C  0.73693848  0.69183002  0.98021290    -0.16600
H1257       H  0.71943215  0.64759409  0.96070176     0.21300
H1258       H  0.77296728  0.64625383  0.03301090     0.19700
H1259       H  0.76644183  0.59493630  0.02784201     0.19700
H1260       H  0.72579616  0.69887886  0.96604963     0.15500
C1261       C  0.74992759  0.72785359  0.07635879     0.31000
C1262       C  0.76014009  0.71938695  0.09774992    -0.35400
C1263       C  0.75164008  0.72987687  0.11897480     0.17000
C1264       C  0.73402406  0.74723532  0.11925579     0.22800
C1265       C  0.72354678  0.75543203  0.09792909    -0.33500
C1266       C  0.73223959  0.74515023  0.07669678     0.16900
O1267       O  0.75771577  0.72328376  0.05441740    -0.25500
C1268       C  0.74473316  0.73772290  0.04054114     0.06700
C1269       C  0.72854157  0.75158814  0.05347701    -0.30400
O1270       O  0.72958826  0.75534498  0.14102730    -0.22200
C1271       C  0.74467288  0.74310044  0.15485889    -0.02200
C1272       C  0.75879750  0.72699546  0.14209566    -0.16600
H1273       H  0.77462620  0.70649550  0.09775943     0.21300
H1274       H  0.71037363  0.76966516  0.09780064     0.19700
H1275       H  0.71762281  0.76623878  0.04689944     0.19700
H1276       H  0.77245132  0.71500276  0.14888626     0.15500
C1277       C  0.57695705  0.75882031  0.27746025     0.31000
C1278       C  0.59792701  0.74799616  0.28594247    -0.35400
C1279       C  0.61923758  0.75467716  0.27421379     0.17000
C1280       C  0.62001629  0.77115520  0.25557975     0.22800
C1281       C  0.59906051  0.78257960  0.24755397    -0.33500
C1282       C  0.57759686  0.77567985  0.25915143     0.16900
O1283       O  0.55497105  0.75202715  0.28304668    -0.25500
C1284       C  0.54115843  0.76491030  0.26851096     0.06700
C1285       C  0.55425263  0.78010163  0.25330268    -0.30400
O1286       O  0.64162168  0.77298034  0.24579363    -0.22200
C1287       C  0.65471788  0.75743458  0.25836034    -0.02200
C1288       C  0.64175320  0.74569721  0.27636596    -0.16600
H1289       H  0.59744285  0.73406431  0.29960483     0.21300
H1290       H  0.59927252  0.79481626  0.23235933     0.19700
H1291       H  0.54770841  0.79055228  0.23826676     0.19700
H1292       H  0.64786561  0.73193359  0.28869433     0.15500
C1293       C  0.74227374  0.62046726  0.22751794     0.31000
C1294       C  0.75199713  0.59889918  0.21892348    -0.35400
C1295       C  0.73783623  0.57822375  0.22253794     0.17000
C1296       C  0.71564511  0.57890020  0.23370105     0.22800
C1297       C  0.70587574  0.60038782  0.24204035    -0.33500
C1298       C  0.72007982  0.62088201  0.23868326     0.16900
O1299       O  0.75277415  0.64177156  0.22720002    -0.25500
C1300       C  0.73708567  0.65581616  0.23846861     0.06700
C1301       C  0.71648104  0.64374586  0.24601444    -0.30400
O1302       O  0.70687308  0.55740386  0.23816952    -0.22200
C1303       C  0.72338788  0.54255954  0.22958171    -0.02200
C1304       C  0.74311856  0.55450400  0.21958449    -0.16600
H1305       H  0.76975113  0.59813025  0.21094603     0.21300
H1306       H  0.68890665  0.60088092  0.25162015     0.19700
H1307       H  0.70112583  0.65080555  0.25561949     0.19700
H1308       H  0.76003221  0.54694225  0.21377076     0.15500
C1309       C  0.73912636  0.87311231  0.26834885     0.31000
C1310       C  0.74480763  0.89276103  0.28268381    -0.35400
C1311       C  0.73506066  0.91477965  0.27558760     0.17000
C1312       C  0.72048665  0.91747609  0.25581921     0.22800
C1313       C  0.71423676  0.89756891  0.24177263    -0.33500
C1314       C  0.72429442  0.87547303  0.24873583     0.16900
O1315       O  0.74771076  0.85126077  0.27088467    -0.25500
C1316       C  0.73836975  0.83934572  0.25262544     0.06700
C1317       C  0.72351003  0.85343128  0.23829771    -0.30400
O1318       O  0.71634119  0.94031775  0.25061901    -0.22200
C1319       C  0.72836091  0.95219131  0.26739704    -0.02200
C1320       C  0.74008541  0.93715240  0.28342964    -0.16600
H1321       H  0.75704646  0.89122853  0.29761010     0.21300
H1322       H  0.70346749  0.89940252  0.22578220     0.19700
H1323       H  0.71371487  0.84820353  0.22246442     0.19700
H1324       H  0.75255289  0.94212042  0.29736304     0.15500
C1325       C  0.23041956  0.72784694  0.07719508     0.31000
C1326       C  0.24727817  0.72323288  0.09536291    -0.35400
C1327       C  0.24021375  0.72930225  0.11886033     0.17000
C1328       C  0.21820491  0.73942923  0.12398790     0.22800
C1329       C  0.20132902  0.74371009  0.10599871    -0.33500
C1330       C  0.20826906  0.73742215  0.08270534     0.16900
O1331       O  0.23391870  0.72588530  0.05373796    -0.25500
C1332       C  0.21355485  0.73400965  0.04426239     0.06700
C1333       C  0.19703394  0.74125342  0.06156392    -0.30400
O1334       O  0.21567099  0.74489600  0.14680002    -0.22200
C1335       C  0.23620426  0.73799266  0.15665667    -0.02200
C1336       C  0.25217279  0.72803553  0.14017248    -0.16600
H1337       H  0.26490819  0.71613786  0.09138263     0.21300
H1338       H  0.18420277  0.75203102  0.10980348     0.19700
H1339       H  0.17996010  0.75005010  0.05881910     0.19700
H1340       H  0.27011643  0.72139935  0.14334601     0.15500
C1341       C  0.37391277  0.76542741  0.25115793     0.31000
C1342       C  0.39360884  0.77804219  0.26056329    -0.35400
C1343       C  0.41637228  0.77146452  0.25185413     0.17000
C1344       C  0.41936795  0.75374669  0.23497024     0.22800
C1345       C  0.39968059  0.74148821  0.22523409    -0.33500
C1346       C  0.37700072  0.74791566  0.23407991     0.16900
O1347       O  0.35125362  0.76767002  0.25780455    -0.25500
C1348       C  0.33963773  0.75138430  0.24485110     0.06700
C1349       C  0.35476902  0.73858585  0.22968780    -0.30400
O1350       O  0.44205754  0.74807095  0.23177412    -0.22200
C1351       C  0.45400257  0.76243556  0.24651246    -0.02200
C1352       C  0.43891308  0.77757550  0.25940856    -0.16600
H1353       H  0.39140556  0.79127988  0.27449649     0.21300
H1354       H  0.40200092  0.72704621  0.21256946     0.19700
H1355       H  0.35010625  0.72434892  0.21745556     0.19700
H1356       H  0.44357402  0.78923322  0.27410793     0.15500
C1357       C  0.24993368  0.61875596  0.23878260     0.31000
C1358       C  0.26010506  0.59801507  0.22890879    -0.35400
C1359       C  0.24964551  0.57611717  0.23602278     0.17000
C1360       C  0.23074299  0.57472088  0.25212493     0.22800
C1361       C  0.22037516  0.59547950  0.26183031    -0.33500
C1362       C  0.23069569  0.61740021  0.25449825     0.16900
O1363       O  0.25726812  0.64100755  0.23493264    -0.25500
C1364       C  0.24255674  0.65415292  0.24832925     0.06700
C1365       C  0.22558570  0.64041721  0.26087258    -0.30400
O1366       O  0.22560121  0.55240194  0.25836015    -0.22200
C1367       C  0.24099131  0.53926635  0.24566648    -0.02200
C1368       C  0.25633190  0.55308464  0.23135792    -0.16600
H1369       H  0.27547271  0.59886957  0.21692765     0.21300
H1370       H  0.20577404  0.59456240  0.27474114     0.19700
H1371       H  0.21161704  0.64650817  0.27295547     0.19700
H1372       H  0.27172295  0.54717256  0.22104793     0.15500
C1373       C  0.26694412  0.91874334  0.23852230     0.31000
C1374       C  0.27522644  0.89854405  0.25119201    -0.35400
C1375       C  0.26712682  0.87616298  0.24304023     0.17000
C1376       C  0.25212386  0.87377797  0.22359305     0.22800
C1377       C  0.24429131  0.89389499  0.21060895    -0.33500
C1378       C  0.25219586  0.91624479  0.21889179     0.16900
O1379       O  0.26931478  0.94135387  0.24512736    -0.25500
C1380       C  0.25604425  0.95346975  0.22941416     0.06700
C1381       C  0.24515388  0.93872761  0.21262379    -0.30400
O1382       O  0.24520043  0.85138895  0.22025892    -0.22200
C1383       C  0.25591871  0.83922162  0.23778064    -0.02200
C1384       C  0.26989030  0.85369280  0.25243734    -0.16600
H1385       H  0.28605285  0.90022334  0.26713831     0.21300
H1386       H  0.23181655  0.89231588  0.19590154     0.19700
H1387       H  0.23205045  0.94367725  0.19922806     0.19700
H1388       H  0.27991463  0.84851214  0.26820813     0.15500
C1389       C  0.24418056  0.76521048  0.37532905     0.31000
C1390       C  0.25164121  0.77747600  0.39577732    -0.35400
C1391       C  0.24196137  0.76930351  0.41764691     0.17000
C1392       C  0.22590119  0.75040859  0.41946725     0.22800
C1393       C  0.21783846  0.73859563  0.39885448    -0.33500
C1394       C  0.22777139  0.74660923  0.37693499     0.16900
O1395       O  0.25242785  0.76866653  0.35331600    -0.25500
C1396       C  0.24119998  0.75202542  0.34059781     0.06700
C1397       C  0.22554983  0.73786618  0.35432962    -0.30400
O1398       O  0.22238765  0.74326700  0.44193635    -0.22200
C1399       C  0.23627209  0.75792905  0.45455111    -0.02200
C1400       C  0.24852721  0.77462434  0.44032080    -0.16600
H1401       H  0.26515951  0.79147702  0.39485935     0.21300
H1402       H  0.20590773  0.72323573  0.39995129     0.19700
H1403       H  0.21441081  0.72308060  0.34852117     0.19700
H1404       H  0.26244191  0.78703972  0.44572128     0.15500
C1405       C  0.16821901  0.75451643  0.48886547     0.31000
C1406       C  0.14759986  0.76231280  0.47673683    -0.35400
C1407       C  0.12543559  0.75634777  0.48749477     0.17000
C1408       C  0.12358485  0.74341241  0.50864425     0.22800
C1409       C  0.14423252  0.73547946  0.52071592    -0.33500
C1410       C  0.16642823  0.74162331  0.51002885     0.16900
O1411       O  0.19072757  0.75843380  0.48218879    -0.25500
C1412       C  0.20369262  0.74805760  0.49937732     0.06700
C1413       C  0.18939478  0.73711756  0.51706730    -0.30400
O1414       O  0.10101283  0.73974641  0.51536835    -0.22200
C1415       C  0.08815108  0.75039289  0.49822332    -0.02200
C1416       C  0.10253122  0.76120447  0.48056922    -0.16600
H1417       H  0.14875752  0.77244782  0.46010814     0.21300
H1418       H  0.14308636  0.72533911  0.53734528     0.19700
H1419       H  0.19464740  0.72690901  0.53261420     0.19700
H1420       H  0.09687357  0.77109702  0.46480831     0.15500
C1421       C  0.11975344  0.75048342  0.26861808     0.31000
C1422       C  0.09893067  0.74163145  0.28017354    -0.35400
C1423       C  0.07700859  0.75068434  0.27171798     0.17000
C1424       C  0.07589285  0.76717289  0.25313958     0.22800
C1425       C  0.09660244  0.77612156  0.24179164    -0.33500
C1426       C  0.11837146  0.76720758  0.25026979     0.16900
O1427       O  0.14201485  0.74351786  0.27250183    -0.25500
C1428       C  0.15490943  0.75607284  0.25649379     0.06700
C1429       C  0.14114790  0.77117590  0.24227191    -0.30400
O1430       O  0.05382663  0.77131244  0.24622918    -0.22200
C1431       C  0.04032190  0.75763758  0.26063959    -0.02200
C1432       C  0.05377165  0.74434542  0.27700165    -0.16600
H1433       H  0.09973142  0.72804507  0.29414390     0.21300
H1434       H  0.09573526  0.78847816  0.22672468     0.19700
H1435       H  0.14699547  0.78271621  0.22760737     0.19700
H1436       H  0.04759453  0.73038964  0.28922143     0.15500
C1437       C  0.87332731  0.73357012  0.24858240     0.31000
C1438       C  0.89401818  0.72218545  0.24016245    -0.35400
C1439       C  0.91549156  0.72861100  0.25132825     0.17000
C1440       C  0.91678504  0.74521024  0.26952124     0.22800
C1441       C  0.89589214  0.75632060  0.27830844    -0.33500
C1442       C  0.87430148  0.74994262  0.26700913     0.16900
O1443       O  0.85153601  0.73082673  0.23998477    -0.25500
C1444       C  0.83826034  0.74571572  0.25295001     0.06700
C1445       C  0.85143338  0.75807628  0.27009254    -0.30400
O1446       O  0.93922238  0.75094443  0.27482117    -0.22200
C1447       C  0.95231002  0.73760170  0.25994520    -0.02200
C1448       C  0.93837420  0.72323179  0.24521980    -0.16600
H1449       H  0.89354992  0.70988736  0.22524036     0.21300
H1450       H  0.89655316  0.76981667  0.29213959     0.19700
H1451       H  0.84504283  0.77102433  0.28299948     0.19700
H1452       H  0.94427326  0.71238989  0.23027682     0.15500
C1453       C  0.00606820  0.75470431  0.33010172     0.31000
C1454       C  0.01715533  0.76403930  0.35059842    -0.35400
C1455       C  0.00865618  0.75525715  0.37280335     0.17000
C1456       C  0.99045192  0.73846578  0.37476703     0.22800
C1457       C  0.97946283  0.72900919  0.35424910    -0.33500
C1458       C  0.98793841  0.73782190  0.33201678     0.16900
O1459       O  0.01123802  0.76038575  0.30758625    -0.25500
C1460       C  0.99619263  0.74701514  0.29483795     0.06700
C1461       C  0.98127310  0.73257368  0.30911419    -0.30400
O1462       O  0.98495170  0.73322039  0.39733492    -0.22200
C1463       C  0.99996924  0.74669752  0.41002682    -0.02200
C1464       C  0.01511234  0.76077188  0.39565631    -0.16600
H1465       H  0.03136301  0.77731147  0.34932224     0.21300
H1466       H  0.96518035  0.71581981  0.35553182     0.19700
H1467       H  0.96786790  0.71972422  0.30353571     0.19700
H1468       H  0.02860451  0.77351939  0.40131176     0.15500
C1469       C  0.99062199  0.75992382  0.62158639     0.31000
C1470       C  0.98142230  0.77082181  0.64228293    -0.35400
C1471       C  0.99100472  0.76286931  0.66413302     0.17000
C1472       C  0.00833077  0.74526245  0.66557683     0.22800
C1473       C  0.01741864  0.73424340  0.64487690    -0.33500
C1474       C  0.00799027  0.74236245  0.62300016     0.16900
O1475       O  0.98484689  0.76523787  0.59926607    -0.25500
C1476       C  0.99884880  0.75104432  0.58619607     0.06700
C1477       C  0.01353189  0.73632875  0.60000033    -0.30400
O1478       O  0.01511389  0.74098829  0.68783311    -0.22200
C1479       C  0.00178237  0.75590208  0.70078401    -0.02200
C1480       C  0.98664301  0.77014900  0.68698771    -0.16600
H1481       H  0.96802969  0.78481890  0.64138449     0.21300
H1482       H  0.03118305  0.72061032  0.64574107     0.19700
H1483       H  0.02655160  0.72332278  0.59389024     0.19700
H1484       H  0.97454334  0.78409730  0.69287000     0.15500
C1485       C  0.75411140  0.71991584  0.41668155     0.31000
C1486       C  0.74388930  0.71076436  0.39581299    -0.35400
C1487       C  0.74999017  0.72274232  0.37450155     0.17000
C1488       C  0.76524733  0.74232856  0.37367907     0.22800
C1489       C  0.77574051  0.75135278  0.39460204    -0.33500
C1490       C  0.76952502  0.73938739  0.41603588     0.16900
O1491       O  0.74859297  0.71310254  0.43864209    -0.25500
C1492       C  0.76081959  0.72809241  0.45239755     0.06700
C1493       C  0.77419041  0.74492496  0.43933155    -0.30400
O1494       O  0.76743041  0.75143372  0.35185971    -0.22200
C1495       C  0.75337402  0.73745114  0.33868889    -0.02200
C1496       C  0.74211338  0.71929817  0.35181243    -0.16600
H1497       H  0.73122555  0.69597414  0.39630004     0.21300
H1498       H  0.78717807  0.76710771  0.39429769     0.19700
H1499       H  0.78400828  0.76026791  0.44597485     0.19700
H1500       H  0.72961449  0.70582515  0.34559633     0.15500
C1501       C  0.82995901  0.75210863  0.50431260     0.31000
C1502       C  0.84983242  0.76290634  0.51540223    -0.35400
C1503       C  0.87256105  0.75650708  0.50636436     0.17000
C1504       C  0.87547454  0.74065554  0.48769190     0.22800
C1505       C  0.85566444  0.72995162  0.47661329    -0.33500
C1506       C  0.83302975  0.73624109  0.48568094     0.16900
O1507       O  0.80711324  0.75485187  0.51025834    -0.25500
C1508       C  0.79545926  0.74058819  0.49514858     0.06700
C1509       C  0.81075084  0.72842361  0.47961345    -0.30400
O1510       O  0.89823203  0.73672308  0.48241529    -0.22200
C1511       C  0.91026088  0.75012642  0.49794333    -0.02200
C1512       C  0.89515054  0.76299632  0.51320013    -0.16600
H1513       H  0.84774026  0.77514113  0.53024393     0.21300
H1514       H  0.85777288  0.71729991  0.46212907     0.19700
H1515       H  0.80628017  0.71514775  0.46631006     0.19700
H1516       H  0.90013068  0.77514394  0.52739081     0.15500
C1517       C  0.08495925  0.76665412  0.72889253     0.31000
C1518       C  0.10652493  0.77861260  0.73352579    -0.35400
C1519       C  0.12730390  0.76474638  0.73205282     0.17000
C1520       C  0.12708481  0.74078728  0.72594654     0.22800
C1521       C  0.10543819  0.72884988  0.72086449    -0.33500
C1522       C  0.08447672  0.74271091  0.72267543     0.16900
O1523       O  0.06345565  0.77527344  0.73317280    -0.25500
C1524       C  0.04882369  0.75686912  0.72930684     0.06700
C1525       C  0.06083624  0.73608820  0.72264895    -0.30400
O1526       O  0.14857855  0.73097960  0.72745305    -0.22200
C1527       C  0.16250688  0.74891670  0.73484427    -0.02200
C1528       C  0.15023264  0.77030075  0.73792194    -0.16600
H1529       H  0.10691700  0.79706297  0.73944803     0.21300
H1530       H  0.10485289  0.70982051  0.71714566     0.19700
H1531       H  0.05348715  0.71817559  0.72091662     0.19700
H1532       H  0.15711545  0.78729662  0.74423141     0.15500
C1533       C  0.25589932  0.61617254  0.77456276     0.31000
C1534       C  0.26477712  0.59610953  0.78715905    -0.35400
C1535       C  0.25678915  0.57353843  0.77929047     0.17000
C1536       C  0.24107179  0.57110849  0.76043083     0.22800
C1537       C  0.23188562  0.59107751  0.74821111    -0.33500
C1538       C  0.23999655  0.61347399  0.75590577     0.16900
O1539       O  0.26225589  0.63881104  0.77760086    -0.25500
C1540       C  0.25025900  0.65061609  0.76062524     0.06700
C1541       C  0.23607157  0.63574706  0.74667690    -0.30400
O1542       O  0.23843420  0.54870058  0.75380814    -0.22200
C1543       C  0.25230638  0.53629658  0.76869319    -0.02200
C1544       C  0.26416095  0.55080602  0.78510775    -0.16600
H1545       H  0.27786973  0.59792011  0.80128426     0.21300
H1546       H  0.22024990  0.58920427  0.73286437     0.19700
H1547       H  0.22493781  0.64059884  0.73156277     0.19700
H1548       H  0.27808242  0.54569872  0.79757706     0.15500
C1549       C  0.37970600  0.74522373  0.76983466     0.31000
C1550       C  0.39939732  0.74167799  0.78488985    -0.35400
C1551       C  0.42149246  0.75034938  0.77624550     0.17000
C1552       C  0.42422659  0.76172756  0.75427328     0.22800
C1553       C  0.40441562  0.76550014  0.73928459    -0.33500
C1554       C  0.38225742  0.75676729  0.74793123     0.16900
O1555       O  0.35742404  0.73833698  0.77427920    -0.25500
C1556       C  0.34549806  0.74556782  0.75496524     0.06700
C1557       C  0.36003326  0.75711221  0.73796991    -0.30400
O1558       O  0.44700389  0.76596433  0.74876140    -0.22200
C1559       C  0.45886615  0.75727280  0.76755462    -0.02200
C1560       C  0.44385640  0.74754426  0.78517946    -0.16600
H1561       H  0.39772795  0.73225751  0.80189693     0.21300
H1562       H  0.40625828  0.77395078  0.72180240     0.19700
H1563       H  0.35486251  0.76498139  0.72095738     0.19700
H1564       H  0.44891120  0.73781660  0.80125873     0.15500
C1565       C  0.24704093  0.75652920  0.57872914     0.31000
C1566       C  0.25541994  0.76829332  0.59918180    -0.35400
C1567       C  0.25378284  0.75529305  0.62076103     0.17000
C1568       C  0.24432228  0.73238263  0.62220664     0.22800
C1569       C  0.23625897  0.72048405  0.60165292    -0.33500
C1570       C  0.23805678  0.73344429  0.58000715     0.16900
O1571       O  0.24851304  0.76469136  0.55654156    -0.25500
C1572       C  0.24001394  0.74681957  0.54332601     0.06700
C1573       C  0.23377494  0.72669488  0.55698169    -0.30400
O1574       O  0.24396295  0.72385833  0.64437362    -0.22200
C1575       C  0.25360722  0.74144730  0.65719454    -0.02200
C1576       C  0.26016639  0.76137775  0.64341397    -0.16600
H1577       H  0.26307508  0.78617230  0.59825880     0.21300
H1578       H  0.22932221  0.70231699  0.60244197     0.19700
H1579       H  0.22882348  0.70902583  0.55073389     0.19700
H1580       H  0.26778129  0.77819274  0.64936953     0.15500
C1581       C  0.22066007  0.74674520  0.87453833     0.31000
C1582       C  0.20356248  0.75174563  0.89237266    -0.35400
C1583       C  0.20940611  0.74442909  0.91574583     0.17000
C1584       C  0.23064393  0.73308546  0.92137394     0.22800
C1585       C  0.24778256  0.72810220  0.90348545    -0.33500
C1586       C  0.24189509  0.73532054  0.88002672     0.16900
O1587       O  0.21876679  0.75178621  0.85145413    -0.25500
C1588       C  0.23901604  0.74339322  0.84194482     0.06700
C1589       C  0.25413267  0.73304424  0.85889694    -0.30400
O1590       O  0.23297024  0.72925695  0.94471198    -0.22200
C1591       C  0.21287045  0.73817880  0.95407773    -0.02200
C1592       C  0.19760054  0.74776350  0.93682663    -0.16600
H1593       H  0.18694369  0.76089434  0.88834511     0.21300
H1594       H  0.26464961  0.71947649  0.90760130     0.19700
H1595       H  0.27145458  0.72477689  0.85599896     0.19700
H1596       H  0.18084438  0.75716118  0.93960818     0.15500
C1597       C  0.27670367  0.86943388  0.74779894     0.31000
C1598       C  0.28824380  0.88971144  0.73774955    -0.35400
C1599       C  0.27986556  0.91213701  0.74551760     0.17000
C1600       C  0.26154245  0.91428853  0.76217539     0.22800
C1601       C  0.25062643  0.89408918  0.77278658    -0.33500
C1602       C  0.25876179  0.87178902  0.76482163     0.16900
O1603       O  0.27959966  0.84693213  0.74112285    -0.25500
C1604       C  0.26328152  0.83482373  0.75404855     0.06700
C1605       C  0.24997543  0.84936099  0.76925180    -0.30400
O1606       O  0.25387637  0.93648416  0.76412207    -0.22200
C1607       C  0.26765136  0.94897125  0.74890754    -0.02200
C1608       C  0.28429942  0.93479365  0.73686091    -0.16600
H1609       H  0.30166921  0.88813606  0.72371596     0.21300
H1610       H  0.23562225  0.89567042  0.78512290     0.19700
H1611       H  0.23519403  0.84427825  0.78098284     0.19700
H1612       H  0.29605212  0.93999193  0.72213893     0.15500
C1613       C  0.62766590  0.75554222  0.76697395     0.31000
C1614       C  0.60830418  0.75056280  0.78228988    -0.35400
C1615       C  0.58602306  0.75920667  0.77488000     0.17000
C1616       C  0.58273182  0.77180880  0.75372327     0.22800
C1617       C  0.60239367  0.77754406  0.73869846    -0.33500
C1618       C  0.62483641  0.76879266  0.74613766     0.16900
O1619       O  0.64975437  0.74786960  0.76990187    -0.25500
C1620       C  0.66143883  0.75636369  0.75078177     0.06700
C1621       C  0.64690899  0.76962698  0.73535482    -0.30400
O1622       O  0.55972975  0.77419452  0.74838019    -0.22200
C1623       C  0.54836767  0.76317781  0.76653431    -0.02200
C1624       C  0.56392390  0.75400335  0.78364773    -0.16600
H1625       H  0.61025780  0.73956970  0.79826715     0.21300
H1626       H  0.60015738  0.78686887  0.72174821     0.19700
H1627       H  0.65188185  0.77846014  0.71865649     0.19700
H1628       H  0.55959055  0.74242811  0.79879703     0.15500
C1629       C  0.77116862  0.57973259  0.74949772     0.31000
C1630       C  0.78032974  0.60062394  0.73866848    -0.35400
C1631       C  0.76888757  0.62199259  0.74483127     0.17000
C1632       C  0.74971989  0.62287704  0.76062997     0.22800
C1633       C  0.74064464  0.60190271  0.77169662    -0.33500
C1634       C  0.75220711  0.58039674  0.76557134     0.16900
O1635       O  0.77753101  0.55774481  0.74411878    -0.25500
C1636       C  0.76282183  0.54393519  0.75713277     0.06700
C1637       C  0.74672561  0.55702953  0.77104205    -0.30400
O1638       O  0.74165576  0.64493067  0.76347859    -0.22200
C1639       C  0.75592296  0.65818956  0.74931781    -0.02200
C1640       C  0.77312884  0.64484143  0.73725231    -0.16600
H1641       H  0.79490572  0.60014620  0.72572522     0.21300
H1642       H  0.72534174  0.60226270  0.78377154     0.19700
H1643       H  0.73161511  0.55035830  0.78149077     0.19700
H1644       H  0.78694481  0.65112624  0.72492469     0.15500
C1645       C  0.75377697  0.75736903  0.57460102     0.31000
C1646       C  0.74165206  0.76590836  0.59481196    -0.35400
C1647       C  0.75025208  0.75794233  0.61691683     0.17000
C1648       C  0.76962377  0.74273359  0.61912803     0.22800
C1649       C  0.78206559  0.73442482  0.59880379    -0.33500
C1650       C  0.77334503  0.74234902  0.57652382     0.16900
O1651       O  0.74648951  0.75992392  0.55242509    -0.25500
C1652       C  0.76164693  0.74670421  0.53972607     0.06700
C1653       C  0.77894430  0.73541865  0.55370755    -0.30400
O1654       O  0.77396127  0.73702518  0.64170540    -0.22200
C1655       C  0.75713864  0.74882294  0.65390670    -0.02200
C1656       C  0.74188559  0.76205252  0.63939846    -0.16600
H1657       H  0.72587303  0.77709320  0.59335105     0.21300
H1658       H  0.79686155  0.72197102  0.60022992     0.19700
H1659       H  0.79178975  0.72195695  0.54825267     0.19700
H1660       H  0.72683698  0.77310736  0.64468230     0.15500
C1661       C  0.75638071  0.72902472  0.91780223     0.31000
C1662       C  0.74364755  0.72198213  0.89738237    -0.35400
C1663       C  0.75230589  0.73097535  0.87534784     0.17000
C1664       C  0.77219702  0.74576335  0.87349629     0.22800
C1665       C  0.78520383  0.75237887  0.89384275    -0.33500
C1666       C  0.77648882  0.74347125  0.91585410     0.16900
O1667       O  0.74956777  0.72553596  0.94029835    -0.25500
C1668       C  0.76562768  0.73766136  0.95296639     0.06700
C1669       C  0.78287663  0.74901930  0.93860650    -0.30400
O1670       O  0.77627952  0.75326533  0.85131974    -0.22200
C1671       C  0.75883443  0.74306437  0.83876725    -0.02200
C1672       C  0.74342514  0.72894564  0.85276875    -0.16600
H1673       H  0.72743534  0.71125718  0.89868777     0.21300
H1674       H  0.80039651  0.76452363  0.89270682     0.19700
H1675       H  0.79669822  0.76150671  0.94406436     0.19700
H1676       H  0.72771195  0.71903018  0.84716789     0.15500
C1677       C  0.74807210  0.92153025  0.76010235     0.31000
C1678       C  0.75757285  0.90091366  0.77080953    -0.35400
C1679       C  0.75109994  0.87915708  0.76039678     0.17000
C1680       C  0.73625299  0.87764590  0.74074644     0.22800
C1681       C  0.72661843  0.89838018  0.73001737    -0.33500
C1682       C  0.73311089  0.92028368  0.74052014     0.16900
O1683       O  0.75383246  0.94366023  0.76558994    -0.25500
C1684       C  0.74217404  0.95700247  0.74966786     0.06700
C1685       C  0.72905819  0.94342730  0.73343976    -0.30400
O1686       O  0.73345784  0.85533065  0.73347508    -0.22200
C1687       C  0.74672463  0.84258177  0.74872597    -0.02200
C1688       C  0.75805287  0.85647713  0.76583361    -0.16600
H1689       H  0.76986733  0.90184048  0.78572505     0.21300
H1690       H  0.71546444  0.89754167  0.71422537     0.19700
H1691       H  0.72006347  0.94943409  0.71734880     0.19700
H1692       H  0.76997923  0.85071372  0.77999108     0.15500
C1693       C  0.88114473  0.75451669  0.73051409     0.31000
C1694       C  0.90215632  0.74599487  0.71947014    -0.35400
C1695       C  0.92377304  0.75582505  0.72770500     0.17000
C1696       C  0.92452957  0.77287827  0.74550614     0.22800
C1697       C  0.90356995  0.78164739  0.75624933    -0.33500
C1698       C  0.88203637  0.77177366  0.74811394     0.16900
O1699       O  0.85910232  0.74685785  0.72665794    -0.25500
C1700       C  0.84578873  0.75943325  0.74194988     0.06700
C1701       C  0.85908447  0.77527725  0.75569814    -0.30400
O1702       O  0.94653745  0.77797451  0.75209669    -0.22200
C1703       C  0.96019879  0.76428875  0.73821088    -0.02200
C1704       C  0.94702908  0.75005580  0.72263180    -0.16600
H1705       H  0.90172295  0.73208362  0.70604400     0.21300
H1706       H  0.90408377  0.79458412  0.77061665     0.19700
H1707       H  0.85280571  0.78718174  0.76963311     0.19700
H1708       H  0.95350223  0.73629630  0.71064559     0.15500
loop_ 
_geom_bond_atom_site_label_1 
_geom_bond_atom_site_label_2 
_geom_bond_distance 
_geom_bond_site_symmetry_2 
_ccdc_geom_bond_type 
Zn1           O5   1.956       .  S
Zn1           O6   2.010       .  S
Zn1          O10   2.009       .  S
Zn1          O17   2.008       .  S
Zn2           O5   1.952       .  S
Zn2           O7   2.024       .  S
Zn2           O9   2.011       .  S
Zn2          O13   2.014       .  S
Zn3           O5   1.950       .  S
Zn3           O8   2.016       .  S
Zn3          O11   2.011       .  S
Zn3          O14   2.019       .  S
Zn4           O5   1.952       .  S
Zn4          O12   2.007       .  S
Zn4          O15   2.008       .  S
Zn4          O16   2.007       .  S
O6           C18   1.272       .  A
O7           C19   1.273       .  A
O8           C20   1.274       .  A
O9           C18   1.274       .  A
O10          C20   1.271       .  A
O11          C19   1.272       .  A
O12          C21   1.274       .  A
O13          C22   1.273       .  A
O14          C21   1.273       .  A
O15          C22   1.271       .  A
O16          C23   1.271       .  A
O17          C23   1.273       .  A
C18        C1687   1.466       .  S
C19        C1671   1.470       .  S
C20        C1620   1.466       .  S
C21        C1639   1.467       .  S
C22        C1700   1.466       .  S
C23        C1655   1.464       .  S
Zn24         O28   1.959       .  S
Zn24         O29   2.008       .  S
Zn24         O33   2.022       .  S
Zn24         O40   2.015       .  S
Zn25         O28   1.957       .  S
Zn25         O30   2.030       .  S
Zn25         O32   2.030       .  S
Zn25         O36   2.026       .  S
Zn26         O28   1.951       .  S
Zn26         O31   2.018       .  S
Zn26         O34   2.004       .  S
Zn26         O37   2.017       .  S
Zn27         O28   1.945       .  S
Zn27         O35   2.020       .  S
Zn27         O38   2.023       .  S
Zn27         O39   2.014       .  S
O29          C41   1.274       .  A
O30          C42   1.276       .  A
O31          C43   1.274       .  A
O32          C41   1.275       .  A
O33          C43   1.273       .  A
O34          C42   1.273       .  A
O35          C44   1.274       .  A
O36          C45   1.274       .  A
O37          C44   1.272       .  A
O38          C45   1.274       .  A
O39          C46   1.274       .  A
O40          C46   1.272       .  A
C41        C1540   1.470       .  S
C42        C1556   1.468       .  S
C43        C1575   1.469       .  S
C44        C1604   1.472       .  S
C45        C1588   1.473       .  S
C46        C1527   1.466       .  S
N47          C51   1.357       .  A
N47          C48   1.361       .  A
N47        C1508   1.444       .  S
C48        C1492   1.467       .  S
C48          C49   1.380       .  A
C49          C50   1.367       .  A
C49          H52   1.083       .  S
C50          C51   1.380       .  A
C50          H53   1.083       .  S
C51        C1652   1.464       .  S
N54          C58   1.355       .  A
N54          C55   1.358   1_455  A
N54        C1479   1.439       .  S
C55        C1703   1.470       .  S
C55          C56   1.381       .  A
C56          C57   1.371   1_655  A
C56          H59   1.082       .  S
C57          C58   1.380       .  A
C57          H60   1.082       .  S
C58        C1524   1.465       .  S
N61          C65   1.362   1_655  A
N61          C62   1.364       .  A
N61        C1460   1.445       .  S
C62        C1447   1.476       .  S
C62          C63   1.382       .  A
C63          C64   1.364   1_655  A
C63          H66   1.082       .  S
C64          C65   1.379       .  A
C64          H67   1.083       .  S
C65        C1431   1.473       .  S
N68          C73   1.356       .  A
N68          C72   1.355       .  A
N68         H100   1.039       .  S
N69          C76   1.354       .  A
N69          C77   1.355       .  A
N70          C75   1.353       .  A
N70          C74   1.356       .  A
N70         H101   1.040       .  S
N71          C78   1.354       .  A
N71          C79   1.353       .  A
C72          C80   1.387       .  A
C72          C88   1.418       .  A
C73          C89   1.420       .  A
C73          C81   1.387       .  A
C74          C82   1.387       .  A
C74          C91   1.418       .  A
C75          C90   1.416   1_455  A
C75          C83   1.387       .  A
C76          C88   1.416   1_455  A
C76          C84   1.385       .  A
C77          C91   1.418       .  A
C77          C85   1.386       .  A
C78          C86   1.387       .  A
C78          C89   1.417       .  A
C79          C87   1.386       .  A
C79          C90   1.413       .  A
C80          C81   1.376       .  A
C80          H92   1.082       .  S
C81          H93   1.082       .  S
C82          C83   1.377       .  A
C82          H94   1.082       .  S
C83          H95   1.082       .  S
C84          C85   1.372       .  A
C84          H96   1.082       .  S
C85          H97   1.082       .  S
C86          C87   1.372       .  A
C86          H98   1.082       .  S
C87          H99   1.082       .  S
C88        C1463   1.492       .  S
C89        C1511   1.493       .  S
C90        C1476   1.483       .  S
C91        C1415   1.499       .  S
N102        C106   1.362       .  A
N102        C103   1.366       .  A
N102       C1412   1.450       .  S
C103       C1572   1.468       .  S
C103        C104   1.379       .  A
C104        C105   1.364       .  A
C104        H107   1.083       .  S
C105        C106   1.381       .  A
C105        H108   1.083       .  S
C106       C1399   1.474       .  S
Zn109       O113   1.956       .  S
Zn109       O114   2.034       .  S
Zn109       O118   2.018       .  S
Zn109       O125   2.015       .  S
Zn110       O113   1.958       .  S
Zn110       O115   2.006       .  S
Zn110       O117   2.003       .  S
Zn110       O121   2.019       .  S
Zn111       O113   1.951       .  S
Zn111       O116   2.023       .  S
Zn111       O119   2.015       .  S
Zn111       O122   2.008       .  S
Zn112       O113   1.967       .  S
Zn112       O120   2.041       .  S
Zn112       O123   2.037       .  S
Zn112       O124   2.049       .  S
O114        C126   1.275       .  A
O115        C127   1.270       .  A
O116        C128   1.273       .  A
O117        C126   1.272       .  A
O118        C128   1.273       .  A
O119        C127   1.273       .  A
O120        C129   1.275       .  A
O121        C130   1.274       .  A
O122        C129   1.272       .  A
O123        C130   1.276       .  A
O124        C131   1.278       .  A
O125        C131   1.274       .  A
C126       C1396   1.470       .  S
C127       C1428   1.467       .  S
C128       C1383   1.472       .  S
C129       C1335   1.472       .  S
C130       C1364   1.474       .  S
C131       C1348   1.476       .  S
Zn132       O136   1.950       .  S
Zn132       O137   2.002       .  S
Zn132       O141   2.015       .  S
Zn132       O148   2.013       .  S
Zn133       O136   1.939       .  S
Zn133       O138   2.005       .  S
Zn133       O140   2.006       .  S
Zn133       O144   2.007       .  S
Zn134       O136   1.959       .  S
Zn134       O139   2.014       .  S
Zn134       O142   2.021       .  S
Zn134       O145   2.034       .  S
Zn135       O136   1.950       .  S
Zn135       O143   2.011       .  S
Zn135       O146   2.023       .  S
Zn135       O147   2.023       .  S
O137        C149   1.270       .  A
O138        C150   1.272       .  A
O139        C151   1.273       .  A
O140        C149   1.272       .  A
O141        C151   1.274       .  A
O142        C150   1.272       .  A
O143        C152   1.274       .  A
O144        C153   1.273       .  A
O145        C152   1.276       .  A
O146        C153   1.272       .  A
O147        C154   1.275       .  A
O148        C154   1.273       .  A
C149       C1495   1.463       .  S
C150       C1287   1.469       .  S
C151       C1316   1.468       .  S
C152       C1271   1.471       .  S
C153       C1300   1.468       .  S
C154       C1444   1.469       .  S
N155        C159   1.358   1_556  A
N155        C156   1.361       .  A
N155       C1255   1.440       .  S
C156       C1668   1.477       .  S
C156        C157   1.383       .  A
C157        C158   1.369   1_556  A
C157        H160   1.082       .  S
C158        C159   1.380       .  A
C158        H161   1.082       .  S
C159       C1268   1.471       .  S
N162        C166   1.355       .  A
N162        C163   1.356       .  A
N162       C1236   1.438       .  S
C163       C1636   1.470       .  S
C163        C164   1.381       .  A
C164        C165   1.371       .  A
C164        H167   1.082       .  S
C165        C166   1.382       .  A
C165        H168   1.082       .  S
C166       C1220   1.468       .  S
N169        C173   1.355   1_556  A
N169        C170   1.358       .  A
N169       C1204   1.442       .  S
C170       C1191   1.465       .  S
C170        C171   1.381       .  A
C171        C172   1.369   1_556  A
C171        H174   1.082       .  S
C172        C173   1.379       .  A
C172        H175   1.083       .  S
C173       C1175   1.463       .  S
N176        C181   1.355       .  A
N176        C180   1.355       .  A
N176        H208   1.051       .  S
N177        C184   1.355       .  A
N177        C185   1.355       .  A
N178        C183   1.351       .  A
N178        C182   1.350       .  A
N178        H209   1.056       .  S
N179        C186   1.352       .  A
N179        C187   1.353       .  A
C180        C188   1.389       .  A
C180        C196   1.422       .  A
C181        C197   1.418       .  A
C181        C189   1.386       .  A
C182        C190   1.388       .  A
C182        C199   1.413   1_554  A
C183        C198   1.413       .  A
C183        C191   1.387       .  A
C184        C196   1.421       .  A
C184        C192   1.389       .  A
C185        C199   1.416       .  A
C185        C193   1.384       .  A
C186        C194   1.387       .  A
C186        C197   1.416   1_554  A
C187        C195   1.385       .  A
C187        C198   1.412       .  A
C188        C189   1.376       .  A
C188        H200   1.080       .  S
C189        H201   1.082       .  S
C190        C191   1.375       .  A
C190        H202   1.082       .  S
C191        H203   1.082       .  S
C192        C193   1.372       .  A
C192        H204   1.080       .  S
C193        H205   1.082       .  S
C194        C195   1.372       .  A
C194        H206   1.082       .  S
C195        H207   1.082       .  S
C196       C1239   1.493       .  S
C197       C1207   1.492       .  S
C198       C1156   1.485       .  S
C199       C1252   1.489       .  S
N210        C214   1.359       .  A
N210        C211   1.361       .  A
N210       C1159   1.441       .  S
C211       C1140   1.472       .  S
C211        C212   1.380       .  A
C212        C213   1.367       .  A
C212        H215   1.082       .  S
C213        C214   1.379       .  A
C213        H216   1.083       .  S
C214       C1303   1.469       .  S
Zn217       O221   1.947       .  S
Zn217       O222   2.016       .  S
Zn217       O226   2.005       .  S
Zn217       O233   2.021       .  S
Zn218       O221   1.943       .  S
Zn218       O223   2.016       .  S
Zn218       O225   2.029       .  S
Zn218       O229   2.000       .  S
Zn219       O221   1.936       .  S
Zn219       O224   2.009       .  S
Zn219       O227   2.007       .  S
Zn219       O230   2.012       .  S
Zn220       O221   1.947       .  S
Zn220       O228   2.028       .  S
Zn220       O231   2.012       .  S
Zn220       O232   2.019       .  S
O222        C234   1.273       .  A
O223        C235   1.273       .  A
O224        C236   1.273       .  A
O225        C234   1.274       .  A
O226        C236   1.271       .  A
O227        C235   1.273       .  A
O228        C237   1.272       .  A
O229        C238   1.274       .  A
O230        C237   1.273       .  A
O231        C238   1.273       .  A
O232        C239   1.275       .  A
O233        C239   1.275       .  A
C234       C1076   1.470       .  S
C235       C1108   1.464       .  S
C236       C1092   1.462       .  S
C237       C1143   1.472       .  S
C238       C1172   1.463       .  S
C239       C1124   1.467       .  S
Zn240       O244   1.957       .  S
Zn240       O245   2.021       .  S
Zn240       O249   2.020       .  S
Zn240       O256   2.017       .  S
Zn241       O244   1.943       .  S
Zn241       O246   2.016       .  S
Zn241       O248   2.021       .  S
Zn241       O252   2.003       .  S
Zn242       O244   1.945       .  S
Zn242       O247   2.011       .  S
Zn242       O250   2.022       .  S
Zn242       O253   2.017       .  S
Zn243       O244   1.960       .  S
Zn243       O251   2.014       .  S
Zn243       O254   2.026       .  S
Zn243       O255   2.018       .  S
O245        C257   1.274       .  A
O246        C258   1.273       .  A
O247        C259   1.273       .  A
O248        C257   1.275       .  A
O249        C259   1.273       .  A
O250        C258   1.274       .  A
O251        C260   1.271       .  A
O252        C261   1.272       .  A
O253        C260   1.273       .  A
O254        C261   1.274       .  A
O255        C262   1.275       .  A
O256        C262   1.274       .  A
C257       C1060   1.470       .  S
C258       C1223   1.470       .  S
C259       C1028   1.468       .  S
C260       C1044   1.467       .  S
C261       C1188   1.467       .  S
C262       C1015   1.468       .  S
N263        C267   1.359       .  A
N263        C264   1.358   1_545  A
N263        C999   1.441       .  S
C264       C1684   1.467       .  S
C264        C265   1.379       .  A
C265        C266   1.368   1_565  A
C265        H268   1.082       .  S
C266        C267   1.382       .  A
C266        H269   1.082       .  S
C267       C1012   1.470       .  S
N270        C274   1.358       .  A
N270        C271   1.361       .  A
N270        C980   1.440       .  S
C271       C1559   1.471       .  S
C271        C272   1.380       .  A
C272        C273   1.366       .  A
C272        H275   1.082       .  S
C273        C274   1.383       .  A
C273        H276   1.082       .  S
C274       C1623   1.474       .  S
N277        C281   1.357   1_565  A
N277        C278   1.359       .  A
N277        C967   1.438       .  S
C278       C1607   1.473       .  S
C278        C279   1.380       .  A
C279        C280   1.373   1_565  A
C279        H282   1.082       .  S
C280        C281   1.382       .  A
C280        H283   1.082       .  S
C281        C948   1.476       .  S
N284        C289   1.354       .  A
N284        C288   1.354       .  A
N284        H316   1.038       .  S
N285        C292   1.353       .  A
N285        C293   1.352       .  A
N286        C291   1.354       .  A
N286        C290   1.353       .  A
N286        H317   1.040       .  S
N287        C294   1.352       .  A
N287        C295   1.354       .  A
C288        C296   1.387       .  A
C288        C304   1.416       .  A
C289        C305   1.418       .  A
C289        C297   1.388       .  A
C290        C298   1.388       .  A
C290        C307   1.416       .  A
C291        C306   1.412   1_545  A
C291        C299   1.386       .  A
C292        C304   1.414   1_545  A
C292        C300   1.386       .  A
C293        C307   1.414       .  A
C293        C301   1.387       .  A
C294        C302   1.387       .  A
C294        C305   1.416       .  A
C295        C303   1.384       .  A
C295        C306   1.412       .  A
C296        C297   1.376       .  A
C296        H308   1.082       .  S
C297        H309   1.082       .  S
C298        C299   1.375       .  A
C298        H310   1.082       .  S
C299        H311   1.082       .  S
C300        C301   1.372       .  A
C300        H312   1.082       .  S
C301        H313   1.082       .  S
C302        C303   1.372       .  A
C302        H314   1.082       .  S
C303        H315   1.082       .  S
C304        C964   1.486       .  S
C305        C983   1.487       .  S
C306        C996   1.487       .  S
C307        C935   1.487       .  S
N318        C322   1.359       .  A
N318        C319   1.362       .  A
N318        C932   1.440       .  S
C319        C916   1.483       .  S
C319        C320   1.383       .  A
C320        C321   1.369       .  A
C320        H323   1.082       .  S
C321        C322   1.381       .  A
C321        H324   1.082       .  S
C322       C1047   1.476       .  S
Zn325       O329   1.966       .  S
Zn325       O330   2.017       .  S
Zn325       O334   2.033       .  S
Zn325       O341   2.027       .  S
Zn326       O329   1.970       .  S
Zn326       O331   2.054       .  S
Zn326       O333   2.046       .  S
Zn326       O337   2.053       .  S
Zn327       O329   1.942       .  S
Zn327       O332   2.013       .  S
Zn327       O335   2.024       .  S
Zn327       O338   2.016       .  S
Zn328       O329   1.959       .  S
Zn328       O336   2.024       .  S
Zn328       O339   2.017       .  S
Zn328       O340   2.027       .  S
O330        C342   1.276       .  A
O331        C343   1.276       .  A
O332        C344   1.274       .  A
O333        C342   1.278       .  A
O334        C344   1.273       .  A
O335        C343   1.274       .  A
O336        C345   1.272       .  A
O337        C346   1.279       .  A
O338        C345   1.273       .  A
O339        C346   1.275       .  A
O340        C347   1.275       .  A
O341        C347   1.274       .  A
C342        C951   1.474       .  S
C343        C919   1.480       .  S
C344        C868   1.474       .  S
C345        C887   1.471       .  S
C346        C903   1.476       .  S
C347        C852   1.473       .  S
N348        C352   1.364   1_556  A
N348        C349   1.366       .  A
N348        C836   1.449       .  S
C349       C1591   1.477       .  S
C349        C350   1.381       .  A
C350        C351   1.365   1_556  A
C350        H353   1.082       .  S
C351        C352   1.382       .  A
C351        H354   1.083       .  S
C352       C1332   1.480       .  S
N355        C359   1.362       .  A
N355        C356   1.361       .  A
N355        C823   1.443       .  S
C356       C1543   1.474       .  S
C356        C357   1.379       .  A
C357        C358   1.367       .  A
C357        H360   1.083       .  S
C358        C359   1.382       .  A
C358        H361   1.082       .  S
C359        C884   1.477       .  S
N362        C366   1.361       .  A
N362        C363   1.363   1_554  A
N362        C804   1.446       .  S
C363        C900   1.471       .  S
C363        C364   1.380       .  A
C364        C365   1.367   1_556  A
C364        H367   1.082       .  S
C365        C366   1.381       .  A
C365        H368   1.083       .  S
C366        C791   1.474       .  S
N369        C374   1.354       .  A
N369        C373   1.356       .  A
N369        H401   1.048       .  S
N370        C377   1.357       .  A
N370        C378   1.356       .  A
N371        C376   1.359       .  A
N371        C375   1.358       .  A
N371        H402   1.046       .  S
N372        C379   1.356       .  A
N372        C380   1.356       .  A
C373        C381   1.388       .  A
C373        C389   1.419   1_556  A
C374        C390   1.415       .  A
C374        C382   1.386       .  A
C375        C383   1.387       .  A
C375        C392   1.426       .  A
C376        C391   1.429       .  A
C376        C384   1.387       .  A
C377        C389   1.422       .  A
C377        C385   1.386       .  A
C378        C392   1.421       .  A
C378        C386   1.387       .  A
C379        C387   1.385       .  A
C379        C390   1.418       .  A
C380        C388   1.387       .  A
C380        C391   1.420   1_556  A
C381        C382   1.375       .  A
C381        H393   1.082       .  S
C382        H394   1.082       .  S
C383        C384   1.376       .  A
C383        H395   1.080       .  S
C384        H396   1.081       .  S
C385        C386   1.374       .  A
C385        H397   1.081       .  S
C386        H398   1.081       .  S
C387        C388   1.372       .  A
C387        H399   1.082       .  S
C388        H400   1.082       .  S
C389        C807   1.501       .  S
C390        C820   1.493       .  S
C391        C839   1.507       .  S
C392        C775   1.499       .  S
N403        C407   1.359       .  A
N403        C404   1.359       .  A
N403        C772   1.442       .  S
C404       C1367   1.472       .  S
C404        C405   1.380       .  A
C405        C406   1.372       .  A
C405        H408   1.082       .  S
C406        C407   1.382       .  A
C406        H409   1.082       .  S
C407        C759   1.473       .  S
N410        C414   1.363       .  A
N410        C411   1.362       .  A
N410        C743   1.444       .  S
C411       C1284   1.472       .  S
C411        C412   1.379       .  A
C412        C413   1.369       .  A
C412        H415   1.083       .  S
C413        C414   1.381       .  A
C413        H416   1.082       .  S
C414       C1351   1.477       .  S
N417        C421   1.358   1_565  A
N417        C418   1.360       .  A
N417        C727   1.440       .  S
C418       C1319   1.473       .  S
C418        C419   1.382       .  A
C419        C420   1.369   1_565  A
C419        H422   1.082       .  S
C420        C421   1.380       .  A
C420        H423   1.082       .  S
C421       C1079   1.471       .  S
N424        C428   1.359   1_565  A
N424        C425   1.363       .  A
N424        C708   1.448       .  S
C425       C1380   1.475       .  S
C425        C426   1.383       .  A
C426        C427   1.369   1_565  A
C426        H429   1.082       .  S
C427        C428   1.378       .  A
C427        H430   1.082       .  S
C428        C692   1.467       .  S
N431        C436   1.354       .  A
N431        C435   1.351       .  A
N431        H463   1.040       .  S
N432        C439   1.355       .  A
N432        C440   1.355       .  A
N433        C438   1.354       .  A
N433        C437   1.356       .  A
N433        H464   1.042       .  S
N434        C441   1.352       .  A
N434        C442   1.351       .  A
C435        C443   1.388       .  A
C435        C451   1.413       .  A
C436        C452   1.413       .  A
C436        C444   1.387       .  A
C437        C445   1.386       .  A
C437        C454   1.417       .  A
C438        C453   1.416       .  A
C438        C446   1.387       .  A
C439        C451   1.418       .  A
C439        C447   1.386       .  A
C440        C454   1.416   1_565  A
C440        C448   1.385       .  A
C441        C449   1.386       .  A
C441        C452   1.412   1_545  A
C442        C450   1.387       .  A
C442        C453   1.411       .  A
C443        C444   1.376       .  A
C443        H455   1.082       .  S
C444        H456   1.082       .  S
C445        C446   1.374       .  A
C445        H457   1.082       .  S
C446        H458   1.082       .  S
C447        C448   1.375       .  A
C447        H459   1.082       .  S
C448        H460   1.082       .  S
C449        C450   1.373       .  A
C449        H461   1.082       .  S
C450        H462   1.082       .  S
C451        C740   1.486       .  S
C452        C724   1.486       .  S
C453        C676   1.485       .  S
C454        C711   1.497       .  S
N465        C469   1.357       .  A
N465        C466   1.360       .  A
N465        C679   1.442       .  S
C466       C1111   1.470       .  S
C466        C467   1.382       .  A
C467        C468   1.370       .  A
C467        H470   1.082       .  S
C468        C469   1.380       .  A
C468        H471   1.082       .  S
C469        C660   1.470       .  S
N472        C476   1.361       .  A
N472        C473   1.362       .  A
N472        C644   1.447       .  S
C473       C1095   1.465       .  S
C473        C474   1.380       .  A
C474        C475   1.365       .  A
C474        H477   1.083       .  S
C475        C476   1.380       .  A
C475        H478   1.083       .  S
C476       C1031   1.471       .  S
N479        C483   1.359   1_455  A
N479        C480   1.362       .  A
N479        C628   1.440       .  S
C480        C855   1.476       .  S
C480        C481   1.382       .  A
C481        C482   1.367   1_455  A
C481        H484   1.082       .  S
C482        C483   1.381       .  A
C482        H485   1.082       .  S
C483       C1063   1.475       .  S
N486        C490   1.356       .  A
N486        C487   1.359   1_655  A
N486        C612   1.440   1_655  S
C487        C599   1.474       .  S
C487        C488   1.383       .  A
C488        C489   1.370   1_455  A
C488        H491   1.082       .  S
C489        C490   1.380       .  A
C489        H492   1.082       .  S
C490       C1127   1.468       .  S
N493        C498   1.358       .  A
N493        C497   1.356       .  A
N493        H525   1.036       .  S
N494        C501   1.355       .  A
N494        C502   1.357       .  A
N495        C500   1.355       .  A
N495        C499   1.356       .  A
N495        H526   1.038       .  S
N496        C503   1.355       .  A
N496        C504   1.354       .  A
C497        C505   1.388       .  A
C497        C513   1.423       .  A
C498        C514   1.424       .  A
C498        C506   1.388       .  A
C499        C507   1.386       .  A
C499        C516   1.418       .  A
C500        C515   1.420   1_655  A
C500        C508   1.388       .  A
C501        C513   1.422   1_655  A
C501        C509   1.388       .  A
C502        C516   1.417       .  A
C502        C510   1.384       .  A
C503        C511   1.388       .  A
C503        C514   1.420       .  A
C504        C512   1.386       .  A
C504        C515   1.417       .  A
C505        C506   1.375       .  A
C505        H517   1.082       .  S
C506        H518   1.081       .  S
C507        C508   1.373       .  A
C507        H519   1.082       .  S
C508        H520   1.082       .  S
C509        C510   1.370       .  A
C509        H521   1.082       .  S
C510        H522   1.082       .  S
C511        C512   1.371       .  A
C511        H523   1.081       .  S
C512        H524   1.082       .  S
C513        C615   1.495       .  S
C514        C580   1.492       .  S
C515        C631   1.490       .  S
C516        C647   1.498       .  S
N527        C531   1.357       .  A
N527        C528   1.357       .  A
N527        C583   1.434       .  S
C528        C567   1.475       .  S
C528        C529   1.382       .  A
C529        C530   1.372       .  A
C529        H532   1.082       .  S
C530        C531   1.380       .  A
C530        H533   1.082       .  S
C531        C871   1.474       .  S
Zn534       O538   1.975       .  S
Zn534       O539   2.025       .  S
Zn534       O543   2.031       .  S
Zn534       O550   2.041       .  S
Zn535       O538   1.956       .  S
Zn535       O540   2.033       .  S
Zn535       O542   2.011       .  S
Zn535       O546   2.027       .  S
Zn536       O538   1.949       .  S
Zn536       O541   2.012       .  S
Zn536       O544   2.019       .  S
Zn536       O547   2.017       .  S
Zn537       O538   1.945       .  S
Zn537       O545   2.025       .  S
Zn537       O548   2.013       .  S
Zn537       O549   2.004       .  S
O539        C551   1.276       .  A
O540        C552   1.275       .  A
O541        C553   1.274       .  A
O542        C551   1.274       .  A
O543        C553   1.275       .  A
O544        C552   1.272       .  A
O545        C554   1.273       .  A
O546        C555   1.273       .  A
O547        C554   1.274       .  A
O548        C555   1.273       .  A
O549        C556   1.273       .  A
O550        C556   1.274       .  A
C551        C695   1.467       .  S
C552        C788   1.473       .  S
C553        C596   1.470       .  S
C554        C756   1.472       .  S
C555        C663   1.469       .  S
C556        C564   1.473       .  S
C557        C562   1.380       .  A
C557        C558   1.411       .  A
C557        O563   1.326       .  A
C558        C559   1.411       .  A
C558        H569   1.082       .  S
C559        C568   1.370       .  A
C559        C560   1.380       .  A
C560        C561   1.396       .  A
C560        O566   1.313       .  A
C561        C562   1.395       .  A
C561        H570   1.082       .  S
C562        C565   1.353       .  A
O563        C564   1.335       .  A
C564        C565   1.387       .  A
C565        H571   1.083       .  S
O566        C567   1.327       .  A
C567        C568   1.396       .  A
C568        H572   1.082       .  S
C573        C578   1.380       .  A
C573        C574   1.402       .  A
C573        O579   1.319       .  A
C574        C575   1.402       .  A
C574        H585   1.082       .  S
C575        C584   1.359       .  A
C575        C576   1.381       .  A
C576        C577   1.406       .  A
C576        O582   1.322       .  A
C577        C578   1.406       .  A
C577        H586   1.082       .  S
C578        C581   1.364       .  A
O579        C580   1.331       .  A
C580        C581   1.395       .  A
C581        H587   1.082       .  S
O582        C583   1.330       .  A
C583        C584   1.388       .  A
C584        H588   1.082       .  S
C589        C594   1.381       .  A
C589        C590   1.397       .  A
C589        O595   1.315       .  A
C590        C591   1.397       .  A
C590        H601   1.082       .  S
C591        C600   1.353       .  A
C591        C592   1.380       .  A
C592        C593   1.408       .  A
C592        O598   1.323       .  A
C593        C594   1.408       .  A
C593        H602   1.082       .  S
C594        C597   1.367       .  A
O595        C596   1.328       .  A
C596        C597   1.395       .  A
C597        H603   1.082       .  S
O598        C599   1.333       .  A
C599        C600   1.388       .  A
C600        H604   1.083       .  S
C605        C610   1.381   1_655  A
C605        C606   1.404       .  A
C605        O611   1.321       .  A
C606        C607   1.404       .  A
C606        H617   1.082       .  S
C607        C616   1.360       .  A
C607        C608   1.379   1_655  A
C608        C609   1.404       .  A
C608        O614   1.321       .  A
C609        C610   1.404       .  A
C609        H618   1.082       .  S
C610        C613   1.361       .  A
O611        C612   1.331   1_655  A
C612        C613   1.393       .  A
C613        H619   1.082       .  S
O614        C615   1.333       .  A
C615        C616   1.394   1_455  A
C616        H620   1.082       .  S
C621        C626   1.380   1_655  A
C621        C622   1.403       .  A
C621        O627   1.319       .  A
C622        C623   1.402       .  A
C622        H633   1.082       .  S
C623        C632   1.361       .  A
C623        C624   1.380   1_655  A
C624        C625   1.406       .  A
C624        O630   1.321       .  A
C625        C626   1.405       .  A
C625        H634   1.082       .  S
C626        C629   1.364       .  A
O627        C628   1.330   1_655  A
C628        C629   1.393       .  A
C629        H635   1.080       .  S
O630        C631   1.333       .  A
C631        C632   1.392   1_455  A
C632        H636   1.082       .  S
C637        C642   1.379       .  A
C637        C638   1.405       .  A
C637        O643   1.321       .  A
C638        C639   1.405       .  A
C638        H649   1.082       .  S
C639        C648   1.363       .  A
C639        C640   1.379       .  A
C640        C641   1.407       .  A
C640        O646   1.323       .  A
C641        C642   1.407       .  A
C641        H650   1.082       .  S
C642        C645   1.365       .  A
O643        C644   1.332       .  A
C644        C645   1.395       .  A
C645        H651   1.077       .  S
O646        C647   1.334       .  A
C647        C648   1.394       .  A
C648        H652   1.082       .  S
C653        C658   1.381       .  A
C653        C654   1.406       .  A
C653        O659   1.321       .  A
C654        C655   1.405       .  A
C654        H665   1.082       .  S
C655        C664   1.365       .  A
C655        C656   1.381       .  A
C656        C657   1.399       .  A
C656        O662   1.316       .  A
C657        C658   1.398       .  A
C657        H666   1.082       .  S
C658        C661   1.356       .  A
O659        C660   1.331       .  A
C660        C661   1.388       .  A
C661        H667   1.083       .  S
O662        C663   1.329       .  A
C663        C664   1.393       .  A
C664        H668   1.082       .  S
C669        C674   1.380       .  A
C669        C670   1.403       .  A
C669        O675   1.318       .  A
C670        C671   1.402       .  A
C670        H681   1.082       .  S
C671        C680   1.362       .  A
C671        C672   1.379       .  A
C672        C673   1.403       .  A
C672        O678   1.316       .  A
C673        C674   1.401       .  A
C673        H682   1.082       .  S
C674        C677   1.360       .  A
O675        C676   1.331       .  A
C676        C677   1.392       .  A
C677        H683   1.083       .  S
O678        C679   1.331       .  A
C679        C680   1.393       .  A
C680        H684   1.078       .  S
C685        C690   1.380       .  A
C685        C686   1.404       .  A
C685        O691   1.317       .  A
C686        C687   1.402       .  A
C686        H697   1.082       .  S
C687        C696   1.363       .  A
C687        C688   1.380       .  A
C688        C689   1.402       .  A
C688        O694   1.316       .  A
C689        C690   1.401       .  A
C689        H698   1.082       .  S
C690        C693   1.362       .  A
O691        C692   1.331       .  A
C692        C693   1.388       .  A
C693        H699   1.082       .  S
O694        C695   1.330       .  A
C695        C696   1.391       .  A
C696        H700   1.082       .  S
C701        C706   1.379   1_545  A
C701        C702   1.410       .  A
C701        O707   1.324       .  A
C702        C703   1.410       .  A
C702        H713   1.082       .  S
C703        C712   1.369       .  A
C703        C704   1.379   1_545  A
C704        C705   1.403       .  A
C704        O710   1.319       .  A
C705        C706   1.402       .  A
C705        H714   1.082       .  S
C706        C709   1.362       .  A
O707        C708   1.336   1_545  A
C708        C709   1.393       .  A
C709        H715   1.081       .  S
O710        C711   1.331   1_565  A
C711        C712   1.398       .  A
C712        H716   1.082       .  S
C717        C722   1.380   1_565  A
C717        C718   1.405       .  A
C717        O723   1.320       .  A
C718        C719   1.404       .  A
C718        H729   1.082       .  S
C719        C728   1.363       .  A
C719        C720   1.381   1_565  A
C720        C721   1.404       .  A
C720        O726   1.319       .  A
C721        C722   1.403       .  A
C721        H730   1.082       .  S
C722        C725   1.362       .  A
O723        C724   1.332       .  A
C724        C725   1.392   1_565  A
C725        H731   1.082       .  S
O726        C727   1.331   1_545  A
C727        C728   1.393       .  A
C728        H732   1.082       .  S
C733        C738   1.380       .  A
C733        C734   1.405       .  A
C733        O739   1.320       .  A
C734        C735   1.405       .  A
C734        H745   1.082       .  S
C735        C744   1.362       .  A
C735        C736   1.380       .  A
C736        C737   1.404       .  A
C736        O742   1.320       .  A
C737        C738   1.403       .  A
C737        H746   1.082       .  S
C738        C741   1.363       .  A
O739        C740   1.333       .  A
C740        C741   1.391       .  A
C741        H747   1.082       .  S
O742        C743   1.331       .  A
C743        C744   1.395       .  A
C744        H748   1.082       .  S
C749        C754   1.380       .  A
C749        C750   1.404       .  A
C749        O755   1.322       .  A
C750        C751   1.405       .  A
C750        H761   1.082       .  S
C751        C760   1.359       .  A
C751        C752   1.381       .  A
C752        C753   1.403       .  A
C752        O758   1.321       .  A
C753        C754   1.403       .  A
C753        H762   1.082       .  S
C754        C757   1.359       .  A
O755        C756   1.332       .  A
C756        C757   1.391       .  A
C757        H763   1.082       .  S
O758        C759   1.330       .  A
C759        C760   1.393       .  A
C760        H764   1.083       .  S
C765        C770   1.381       .  A
C765        C766   1.407       .  A
C765        O771   1.323       .  A
C766        C767   1.407       .  A
C766        H777   1.082       .  S
C767        C776   1.366       .  A
C767        C768   1.379       .  A
C768        C769   1.409       .  A
C768        O774   1.324       .  A
C769        C770   1.408       .  A
C769        H778   1.082       .  S
C770        C773   1.368       .  A
O771        C772   1.332       .  A
C772        C773   1.392       .  A
C773        H779   1.082       .  S
O774        C775   1.335       .  A
C775        C776   1.394       .  A
C776        H780   1.082       .  S
C781        C786   1.380       .  A
C781        C782   1.399       .  A
C781        O787   1.317       .  A
C782        C783   1.400       .  A
C782        H793   1.082       .  S
C783        C792   1.354       .  A
C783        C784   1.380       .  A
C784        C785   1.408       .  A
C784        O790   1.324       .  A
C785        C786   1.408       .  A
C785        H794   1.082       .  S
C786        C789   1.366       .  A
O787        C788   1.329       .  A
C788        C789   1.395       .  A
C789        H795   1.082       .  S
O790        C791   1.334       .  A
C791        C792   1.390       .  A
C792        H796   1.083       .  S
C797        C802   1.380   1_554  A
C797        C798   1.405       .  A
C797        O803   1.320       .  A
C798        C799   1.404       .  A
C798        H809   1.082       .  S
C799        C808   1.364       .  A
C799        C800   1.378   1_554  A
C800        C801   1.408       .  A
C800        O806   1.322       .  A
C801        C802   1.407       .  A
C801        H810   1.082       .  S
C802        C805   1.367       .  A
O803        C804   1.332       .  A
C804        C805   1.396   1_554  A
C805        H811   1.081       .  S
O806        C807   1.335   1_556  A
C807        C808   1.395       .  A
C808        H812   1.082       .  S
C813        C818   1.379       .  A
C813        C814   1.406       .  A
C813        O819   1.321       .  A
C814        C815   1.405       .  A
C814        H825   1.082       .  S
C815        C824   1.364       .  A
C815        C816   1.380       .  A
C816        C817   1.405       .  A
C816        O822   1.320       .  A
C817        C818   1.404       .  A
C817        H826   1.082       .  S
C818        C821   1.364       .  A
O819        C820   1.333       .  A
C820        C821   1.394       .  A
C821        H827   1.082       .  S
O822        C823   1.331       .  A
C823        C824   1.394       .  A
C824        H828   1.082       .  S
C829        C834   1.379   1_554  A
C829        C830   1.408       .  A
C829        O835   1.323       .  A
C830        C831   1.408       .  A
C830        H841   1.082       .  S
C831        C840   1.367       .  A
C831        C832   1.378   1_554  A
C832        C833   1.408       .  A
C832        O838   1.323       .  A
C833        C834   1.407       .  A
C833        H842   1.082       .  S
C834        C837   1.366       .  A
O835        C836   1.333   1_554  A
C836        C837   1.396       .  A
C837        H843   1.082       .  S
O838        C839   1.336   1_556  A
C839        C840   1.397       .  A
C840        H844   1.082       .  S
C845        C850   1.380       .  A
C845        C846   1.399       .  A
C845        O851   1.317       .  A
C846        C847   1.399       .  A
C846        H857   1.082       .  S
C847        C856   1.355       .  A
C847        C848   1.380       .  A
C848        C849   1.408       .  A
C848        O854   1.323       .  A
C849        C850   1.408       .  A
C849        H858   1.082       .  S
C850        C853   1.367       .  A
O851        C852   1.329       .  A
C852        C853   1.395       .  A
C853        H859   1.082       .  S
O854        C855   1.333       .  A
C855        C856   1.390       .  A
C856        H860   1.083       .  S
C861        C866   1.380       .  A
C861        C862   1.408       .  A
C861        O867   1.323       .  A
C862        C863   1.407       .  A
C862        H873   1.082       .  S
C863        C872   1.367       .  A
C863        C864   1.381       .  A
C864        C865   1.400       .  A
C864        O870   1.316       .  A
C865        C866   1.399       .  A
C865        H874   1.082       .  S
C866        C869   1.357       .  A
O867        C868   1.334       .  A
C868        C869   1.389       .  A
C869        H875   1.083       .  S
O870        C871   1.329       .  A
C871        C872   1.393       .  A
C872        H876   1.082       .  S
C877        C882   1.380       .  A
C877        C878   1.409       .  A
C877        O883   1.325       .  A
C878        C879   1.409       .  A
C878        H889   1.082       .  S
C879        C888   1.368       .  A
C879        C880   1.381       .  A
C880        C881   1.397       .  A
C880        O886   1.315       .  A
C881        C882   1.398       .  A
C881        H890   1.082       .  S
C882        C885   1.354       .  A
O883        C884   1.334       .  A
C884        C885   1.389       .  A
C885        H891   1.083       .  S
O886        C887   1.327       .  A
C887        C888   1.396       .  A
C888        H892   1.082       .  S
C893        C898   1.380       .  A
C893        C894   1.406       .  A
C893        O899   1.323       .  A
C894        C895   1.406       .  A
C894        H905   1.082       .  S
C895        C904   1.363       .  A
C895        C896   1.380       .  A
C896        C897   1.403       .  A
C896        O902   1.321       .  A
C897        C898   1.403       .  A
C897        H906   1.082       .  S
C898        C901   1.358       .  A
O899        C900   1.332       .  A
C900        C901   1.391       .  A
C901        H907   1.083       .  S
O902        C903   1.331       .  A
C903        C904   1.394       .  A
C904        H908   1.082       .  S
C909        C914   1.379       .  A
C909        C910   1.411       .  A
C909        O915   1.326       .  A
C910        C911   1.411       .  A
C910        H921   1.082       .  S
C911        C920   1.371       .  A
C911        C912   1.380       .  A
C912        C913   1.400       .  A
C912        O918   1.318       .  A
C913        C914   1.399       .  A
C913        H922   1.082       .  S
C914        C917   1.355       .  A
O915        C916   1.335       .  A
C916        C917   1.390       .  A
C917        H923   1.082       .  S
O918        C919   1.330       .  A
C919        C920   1.397       .  A
C920        H924   1.082       .  S
C925        C930   1.380       .  A
C925        C926   1.405       .  A
C925        O931   1.321       .  A
C926        C927   1.405       .  A
C926        H937   1.082       .  S
C927        C936   1.362       .  A
C927        C928   1.380       .  A
C928        C929   1.401       .  A
C928        O934   1.318       .  A
C929        C930   1.401       .  A
C929        H938   1.082       .  S
C930        C933   1.358       .  A
O931        C932   1.332       .  A
C932        C933   1.392       .  A
C933        H939   1.082       .  S
O934        C935   1.331       .  A
C935        C936   1.394       .  A
C936        H940   1.082       .  S
C941        C946   1.380       .  A
C941        C942   1.409       .  A
C941        O947   1.323       .  A
C942        C943   1.408       .  A
C942        H953   1.082       .  S
C943        C952   1.368       .  A
C943        C944   1.380       .  A
C944        C945   1.400       .  A
C944        O950   1.317       .  A
C945        C946   1.400       .  A
C945        H954   1.082       .  S
C946        C949   1.358       .  A
O947        C948   1.333       .  A
C948        C949   1.390       .  A
C949        H955   1.083       .  S
O950        C951   1.330       .  A
C951        C952   1.395       .  A
C952        H956   1.082       .  S
C957        C962   1.380   1_565  A
C957        C958   1.404       .  A
C957        O963   1.319       .  A
C958        C959   1.403       .  A
C958        H969   1.082       .  S
C959        C968   1.363       .  A
C959        C960   1.381   1_565  A
C960        C961   1.404       .  A
C960        O966   1.319       .  A
C961        C962   1.403       .  A
C961        H970   1.082       .  S
C962        C965   1.362       .  A
O963        C964   1.331       .  A
C964        C965   1.393   1_565  A
C965        H971   1.082       .  S
O966        C967   1.331   1_545  A
C967        C968   1.391       .  A
C968        H972   1.082       .  S
C973        C978   1.381       .  A
C973        C974   1.405       .  A
C973        O979   1.320       .  A
C974        C975   1.405       .  A
C974        H985   1.082       .  S
C975        C984   1.362       .  A
C975        C976   1.380       .  A
C976        C977   1.402       .  A
C976        O982   1.318       .  A
C977        C978   1.402       .  A
C977        H986   1.082       .  S
C978        C981   1.361       .  A
O979        C980   1.332       .  A
C980        C981   1.391       .  A
C981        H987   1.082       .  S
O982        C983   1.330       .  A
C983        C984   1.394       .  A
C984        H988   1.082       .  S
C989        C994   1.380   1_545  A
C989        C990   1.405       .  A
C989        O995   1.320       .  A
C990        C991   1.405       .  A
C990       H1001   1.082       .  S
C991       C1000   1.364       .  A
C991        C992   1.380   1_545  A
C992        C993   1.404       .  A
C992        O998   1.319       .  A
C993        C994   1.403       .  A
C993       H1002   1.082       .  S
C994        C997   1.362       .  A
O995        C996   1.332   1_545  A
C996        C997   1.392       .  A
C997       H1003   1.082       .  S
O998        C999   1.330   1_565  A
C999       C1000   1.393       .  A
C1000      H1004   1.080       .  S
C1005      C1010   1.381       .  A
C1005      C1006   1.403       .  A
C1005      O1011   1.319       .  A
C1006      C1007   1.403       .  A
C1006      H1017   1.082       .  S
C1007      C1016   1.360       .  A
C1007      C1008   1.381       .  A
C1008      C1009   1.400       .  A
C1008      O1014   1.318       .  A
C1009      C1010   1.400       .  A
C1009      H1018   1.082       .  S
C1010      C1013   1.355       .  A
O1011      C1012   1.329       .  A
C1012      C1013   1.390       .  A
C1013      H1019   1.083       .  S
O1014      C1015   1.330       .  A
C1015      C1016   1.391       .  A
C1016      H1020   1.082       .  S
C1021      C1026   1.380       .  A
C1021      C1022   1.405       .  A
C1021      O1027   1.319       .  A
C1022      C1023   1.404       .  A
C1022      H1033   1.082       .  S
C1023      C1032   1.366       .  A
C1023      C1024   1.380       .  A
C1024      C1025   1.400       .  A
C1024      O1030   1.313       .  A
C1025      C1026   1.398       .  A
C1025      H1034   1.083       .  S
C1026      C1029   1.359       .  A
O1027      C1028   1.332       .  A
C1028      C1029   1.390       .  A
C1029      H1035   1.083       .  S
O1030      C1031   1.330       .  A
C1031      C1032   1.392       .  A
C1032      H1036   1.082       .  S
C1037      C1042   1.381       .  A
C1037      C1038   1.398       .  A
C1037      O1043   1.315       .  A
C1038      C1039   1.398       .  A
C1038      H1049   1.082       .  S
C1039      C1048   1.355       .  A
C1039      C1040   1.380       .  A
C1040      C1041   1.409       .  A
C1040      O1046   1.324       .  A
C1041      C1042   1.408       .  A
C1041      H1050   1.082       .  S
C1042      C1045   1.367       .  A
O1043      C1044   1.327       .  A
C1044      C1045   1.394       .  A
C1045      H1051   1.082       .  S
O1046      C1047   1.334       .  A
C1047      C1048   1.389       .  A
C1048      H1052   1.083       .  S
C1053      C1058   1.380       .  A
C1053      C1054   1.398       .  A
C1053      O1059   1.317       .  A
C1054      C1055   1.399       .  A
C1054      H1065   1.082       .  S
C1055      C1064   1.353       .  A
C1055      C1056   1.380       .  A
C1056      C1057   1.408       .  A
C1056      O1062   1.324       .  A
C1057      C1058   1.408       .  A
C1057      H1066   1.082       .  S
C1058      C1061   1.365       .  A
O1059      C1060   1.328       .  A
C1060      C1061   1.394       .  A
C1061      H1067   1.082       .  S
O1062      C1063   1.333       .  A
C1063      C1064   1.389       .  A
C1064      H1068   1.083       .  S
C1069      C1074   1.380       .  A
C1069      C1070   1.400       .  A
C1069      O1075   1.317       .  A
C1070      C1071   1.400       .  A
C1070      H1081   1.082       .  S
C1071      C1080   1.356       .  A
C1071      C1072   1.380       .  A
C1072      C1073   1.407       .  A
C1072      O1078   1.323       .  A
C1073      C1074   1.406       .  A
C1073      H1082   1.082       .  S
C1074      C1077   1.365       .  A
O1075      C1076   1.330       .  A
C1076      C1077   1.393       .  A
C1077      H1083   1.082       .  S
O1078      C1079   1.332       .  A
C1079      C1080   1.389       .  A
C1080      H1084   1.083       .  S
C1085      C1090   1.380       .  A
C1085      C1086   1.404       .  A
C1085      O1091   1.318       .  A
C1086      C1087   1.404       .  A
C1086      H1097   1.082       .  S
C1087      C1096   1.364       .  A
C1087      C1088   1.380       .  A
C1088      C1089   1.399       .  A
C1088      O1094   1.313       .  A
C1089      C1090   1.397       .  A
C1089      H1098   1.082       .  S
C1090      C1093   1.357       .  A
O1091      C1092   1.331       .  A
C1092      C1093   1.387       .  A
C1093      H1099   1.083       .  S
O1094      C1095   1.328       .  A
C1095      C1096   1.392       .  A
C1096      H1100   1.082       .  S
C1101      C1106   1.381       .  A
C1101      C1102   1.398       .  A
C1101      O1107   1.315       .  A
C1102      C1103   1.398       .  A
C1102      H1113   1.082       .  S
C1103      C1112   1.355       .  A
C1103      C1104   1.380       .  A
C1104      C1105   1.405       .  A
C1104      O1110   1.321       .  A
C1105      C1106   1.404       .  A
C1105      H1114   1.082       .  S
C1106      C1109   1.363       .  A
O1107      C1108   1.328       .  A
C1108      C1109   1.392       .  A
C1109      H1115   1.082       .  S
O1110      C1111   1.332       .  A
C1111      C1112   1.389       .  A
C1112      H1116   1.083       .  S
C1117      C1122   1.380       .  A
C1117      C1118   1.399       .  A
C1117      O1123   1.316       .  A
C1118      C1119   1.399       .  A
C1118      H1129   1.082       .  S
C1119      C1128   1.356       .  A
C1119      C1120   1.380       .  A
C1120      C1121   1.407       .  A
C1120      O1126   1.322       .  A
C1121      C1122   1.406       .  A
C1121      H1130   1.082       .  S
C1122      C1125   1.365       .  A
O1123      C1124   1.328       .  A
C1124      C1125   1.393       .  A
C1125      H1131   1.082       .  S
O1126      C1127   1.332       .  A
C1127      C1128   1.388       .  A
C1128      H1132   1.083       .  S
C1133      C1138   1.380       .  A
C1133      C1134   1.398       .  A
C1133      O1139   1.312       .  A
C1134      C1135   1.396       .  A
C1134      H1145   1.082       .  S
C1135      C1144   1.357       .  A
C1135      C1136   1.380       .  A
C1136      C1137   1.408       .  A
C1136      O1142   1.322       .  A
C1137      C1138   1.407       .  A
C1137      H1146   1.082       .  S
C1138      C1141   1.369       .  A
O1139      C1140   1.328       .  A
C1140      C1141   1.394       .  A
C1141      H1147   1.082       .  S
O1142      C1143   1.333       .  A
C1143      C1144   1.389       .  A
C1144      H1148   1.083       .  S
C1149      C1154   1.380       .  A
C1149      C1150   1.402       .  A
C1149      O1155   1.318       .  A
C1150      C1151   1.401       .  A
C1150      H1161   1.082       .  S
C1151      C1160   1.361       .  A
C1151      C1152   1.380       .  A
C1152      C1153   1.405       .  A
C1152      O1158   1.319       .  A
C1153      C1154   1.404       .  A
C1153      H1162   1.082       .  S
C1154      C1157   1.363       .  A
O1155      C1156   1.330       .  A
C1156      C1157   1.393       .  A
C1157      H1163   1.082       .  S
O1158      C1159   1.331       .  A
C1159      C1160   1.392       .  A
C1160      H1164   1.082       .  S
C1165      C1170   1.380       .  A
C1165      C1166   1.405       .  A
C1165      O1171   1.319       .  A
C1166      C1167   1.404       .  A
C1166      H1177   1.082       .  S
C1167      C1176   1.365       .  A
C1167      C1168   1.381       .  A
C1168      C1169   1.398       .  A
C1168      O1174   1.312       .  A
C1169      C1170   1.396       .  A
C1169      H1178   1.083       .  S
C1170      C1173   1.355       .  A
O1171      C1172   1.331       .  A
C1172      C1173   1.388       .  A
C1173      H1179   1.083       .  S
O1174      C1175   1.328       .  A
C1175      C1176   1.391       .  A
C1176      H1180   1.082       .  S
C1181      C1186   1.381       .  A
C1181      C1182   1.402       .  A
C1181      O1187   1.320       .  A
C1182      C1183   1.402       .  A
C1182      H1193   1.082       .  S
C1183      C1192   1.357       .  A
C1183      C1184   1.381       .  A
C1184      C1185   1.401       .  A
C1184      O1190   1.319       .  A
C1185      C1186   1.401       .  A
C1185      H1194   1.082       .  S
C1186      C1189   1.358       .  A
O1187      C1188   1.331       .  A
C1188      C1189   1.390       .  A
C1189      H1195   1.082       .  S
O1190      C1191   1.328       .  A
C1191      C1192   1.390       .  A
C1192      H1196   1.083       .  S
C1197      C1202   1.381   1_554  A
C1197      C1198   1.404       .  A
C1197      O1203   1.321       .  A
C1198      C1199   1.404       .  A
C1198      H1209   1.082       .  S
C1199      C1208   1.361       .  A
C1199      C1200   1.380   1_554  A
C1200      C1201   1.406       .  A
C1200      O1206   1.322       .  A
C1201      C1202   1.406       .  A
C1201      H1210   1.082       .  S
C1202      C1205   1.364       .  A
O1203      C1204   1.331   1_554  A
C1204      C1205   1.393       .  A
C1205      H1211   1.081       .  S
O1206      C1207   1.333       .  A
C1207      C1208   1.393   1_556  A
C1208      H1212   1.082       .  S
C1213      C1218   1.381       .  A
C1213      C1214   1.404       .  A
C1213      O1219   1.321       .  A
C1214      C1215   1.404       .  A
C1214      H1225   1.082       .  S
C1215      C1224   1.362       .  A
C1215      C1216   1.381       .  A
C1216      C1217   1.400       .  A
C1216      O1222   1.318       .  A
C1217      C1218   1.400       .  A
C1217      H1226   1.082       .  S
C1218      C1221   1.356       .  A
O1219      C1220   1.330       .  A
C1220      C1221   1.389       .  A
C1221      H1227   1.083       .  S
O1222      C1223   1.329       .  A
C1223      C1224   1.392       .  A
C1224      H1228   1.082       .  S
C1229      C1234   1.381       .  A
C1229      C1230   1.405       .  A
C1229      O1235   1.320       .  A
C1230      C1231   1.404       .  A
C1230      H1241   1.082       .  S
C1231      C1240   1.363       .  A
C1231      C1232   1.379       .  A
C1232      C1233   1.406       .  A
C1232      O1238   1.321       .  A
C1233      C1234   1.405       .  A
C1233      H1242   1.082       .  S
C1234      C1237   1.365       .  A
O1235      C1236   1.330       .  A
C1236      C1237   1.391       .  A
C1237      H1243   1.082       .  S
O1238      C1239   1.333       .  A
C1239      C1240   1.393       .  A
C1240      H1244   1.082       .  S
C1245      C1250   1.380   1_556  A
C1245      C1246   1.405       .  A
C1245      O1251   1.321       .  A
C1246      C1247   1.405       .  A
C1246      H1257   1.082       .  S
C1247      C1256   1.363       .  A
C1247      C1248   1.380   1_556  A
C1248      C1249   1.404       .  A
C1248      O1254   1.320       .  A
C1249      C1250   1.403       .  A
C1249      H1258   1.082       .  S
C1250      C1253   1.360       .  A
O1251      C1252   1.332       .  A
C1252      C1253   1.393   1_556  A
C1253      H1259   1.082       .  S
O1254      C1255   1.331   1_554  A
C1255      C1256   1.392       .  A
C1256      H1260   1.080       .  S
C1261      C1266   1.381       .  A
C1261      C1262   1.403       .  A
C1261      O1267   1.322       .  A
C1262      C1263   1.404       .  A
C1262      H1273   1.082       .  S
C1263      C1272   1.360       .  A
C1263      C1264   1.380       .  A
C1264      C1265   1.402       .  A
C1264      O1270   1.320       .  A
C1265      C1266   1.403       .  A
C1265      H1274   1.082       .  S
C1266      C1269   1.357       .  A
O1267      C1268   1.330       .  A
C1268      C1269   1.391       .  A
C1269      H1275   1.083       .  S
O1270      C1271   1.331       .  A
C1271      C1272   1.392       .  A
C1272      H1276   1.082       .  S
C1277      C1282   1.381       .  A
C1277      C1278   1.400       .  A
C1277      O1283   1.315       .  A
C1278      C1279   1.398       .  A
C1278      H1289   1.082       .  S
C1279      C1288   1.358       .  A
C1279      C1280   1.380       .  A
C1280      C1281   1.406       .  A
C1280      O1286   1.321       .  A
C1281      C1282   1.405       .  A
C1281      H1290   1.082       .  S
C1282      C1285   1.366       .  A
O1283      C1284   1.329       .  A
C1284      C1285   1.393       .  A
C1285      H1291   1.082       .  S
O1286      C1287   1.332       .  A
C1287      C1288   1.389       .  A
C1288      H1292   1.083       .  S
C1293      C1298   1.380       .  A
C1293      C1294   1.406       .  A
C1293      O1299   1.321       .  A
C1294      C1295   1.405       .  A
C1294      H1305   1.082       .  S
C1295      C1304   1.366       .  A
C1295      C1296   1.380       .  A
C1296      C1297   1.399       .  A
C1296      O1302   1.313       .  A
C1297      C1298   1.397       .  A
C1297      H1306   1.082       .  S
C1298      C1301   1.356       .  A
O1299      C1300   1.333       .  A
C1300      C1301   1.388       .  A
C1301      H1307   1.083       .  S
O1302      C1303   1.329       .  A
C1303      C1304   1.392       .  A
C1304      H1308   1.082       .  S
C1309      C1314   1.381       .  A
C1309      C1310   1.397       .  A
C1309      O1315   1.316       .  A
C1310      C1311   1.398       .  A
C1310      H1321   1.082       .  S
C1311      C1320   1.353       .  A
C1311      C1312   1.381       .  A
C1312      C1313   1.407       .  A
C1312      O1318   1.324       .  A
C1313      C1314   1.407       .  A
C1313      H1322   1.082       .  S
C1314      C1317   1.364       .  A
O1315      C1316   1.328       .  A
C1316      C1317   1.394       .  A
C1317      H1323   1.082       .  S
O1318      C1319   1.333       .  A
C1319      C1320   1.388       .  A
C1320      H1324   1.083       .  S
C1325      C1330   1.380       .  A
C1325      C1326   1.409       .  A
C1325      O1331   1.326       .  A
C1326      C1327   1.409       .  A
C1326      H1337   1.082       .  S
C1327      C1336   1.368       .  A
C1327      C1328   1.380       .  A
C1328      C1329   1.399       .  A
C1328      O1334   1.317       .  A
C1329      C1330   1.400       .  A
C1329      H1338   1.083       .  S
C1330      C1333   1.354       .  A
O1331      C1332   1.334       .  A
C1332      C1333   1.391       .  A
C1333      H1339   1.083       .  S
O1334      C1335   1.329       .  A
C1335      C1336   1.394       .  A
C1336      H1340   1.082       .  S
C1341      C1346   1.379       .  A
C1341      C1342   1.407       .  A
C1341      O1347   1.319       .  A
C1342      C1343   1.405       .  A
C1342      H1353   1.082       .  S
C1343      C1352   1.370       .  A
C1343      C1344   1.379       .  A
C1344      C1345   1.405       .  A
C1344      O1350   1.315       .  A
C1345      C1346   1.401       .  A
C1345      H1354   1.082       .  S
C1346      C1349   1.366       .  A
O1347      C1348   1.333       .  A
C1348      C1349   1.392       .  A
C1349      H1355   1.082       .  S
O1350      C1351   1.332       .  A
C1351      C1352   1.393       .  A
C1352      H1356   1.082       .  S
C1357      C1362   1.380       .  A
C1357      C1358   1.404       .  A
C1357      O1363   1.319       .  A
C1358      C1359   1.402       .  A
C1358      H1369   1.082       .  S
C1359      C1368   1.364       .  A
C1359      C1360   1.380       .  A
C1360      C1361   1.405       .  A
C1360      O1366   1.318       .  A
C1361      C1362   1.404       .  A
C1361      H1370   1.082       .  S
C1362      C1365   1.364       .  A
O1363      C1364   1.330       .  A
C1364      C1365   1.394       .  A
C1365      H1371   1.083       .  S
O1366      C1367   1.332       .  A
C1367      C1368   1.390       .  A
C1368      H1372   1.082       .  S
C1373      C1378   1.381       .  A
C1373      C1374   1.404       .  A
C1373      O1379   1.322       .  A
C1374      C1375   1.405       .  A
C1374      H1385   1.082       .  S
C1375      C1384   1.362       .  A
C1375      C1376   1.381       .  A
C1376      C1377   1.401       .  A
C1376      O1382   1.319       .  A
C1377      C1378   1.402       .  A
C1377      H1386   1.082       .  S
C1378      C1381   1.357       .  A
O1379      C1380   1.331       .  A
C1380      C1381   1.391       .  A
C1381      H1387   1.083       .  S
O1382      C1383   1.330       .  A
C1383      C1384   1.392       .  A
C1384      H1388   1.082       .  S
C1389      C1394   1.381       .  A
C1389      C1390   1.399       .  A
C1389      O1395   1.319       .  A
C1390      C1391   1.400       .  A
C1390      H1401   1.082       .  S
C1391      C1400   1.353       .  A
C1391      C1392   1.381       .  A
C1392      C1393   1.405       .  A
C1392      O1398   1.323       .  A
C1393      C1394   1.406       .  A
C1393      H1402   1.082       .  S
C1394      C1397   1.361       .  A
O1395      C1396   1.329       .  A
C1396      C1397   1.393       .  A
C1397      H1403   1.082       .  S
O1398      C1399   1.331       .  A
C1399      C1400   1.390       .  A
C1400      H1404   1.083       .  S
C1405      C1410   1.378       .  A
C1405      C1406   1.405       .  A
C1405      O1411   1.322       .  A
C1406      C1407   1.406       .  A
C1406      H1417   1.082       .  S
C1407      C1416   1.363       .  A
C1407      C1408   1.379       .  A
C1408      C1409   1.407       .  A
C1408      O1414   1.324       .  A
C1409      C1410   1.408       .  A
C1409      H1418   1.082       .  S
C1410      C1413   1.364       .  A
O1411      C1412   1.333       .  A
C1412      C1413   1.397       .  A
C1413      H1419   1.075       .  S
O1414      C1415   1.335       .  A
C1415      C1416   1.395       .  A
C1416      H1420   1.082       .  S
C1421      C1426   1.380       .  A
C1421      C1422   1.408       .  A
C1421      O1427   1.320       .  A
C1422      C1423   1.406       .  A
C1422      H1433   1.082       .  S
C1423      C1432   1.369       .  A
C1423      C1424   1.380       .  A
C1424      C1425   1.399       .  A
C1424      O1430   1.311       .  A
C1425      C1426   1.396       .  A
C1425      H1434   1.082       .  S
C1426      C1429   1.358       .  A
O1427      C1428   1.333       .  A
C1428      C1429   1.388       .  A
C1429      H1435   1.083       .  S
O1430      C1431   1.329       .  A
C1431      C1432   1.394       .  A
C1432      H1436   1.082       .  S
C1437      C1442   1.381       .  A
C1437      C1438   1.398       .  A
C1437      O1443   1.317       .  A
C1438      C1439   1.399       .  A
C1438      H1449   1.083       .  S
C1439      C1448   1.352       .  A
C1439      C1440   1.380       .  A
C1440      C1441   1.407       .  A
C1440      O1446   1.325       .  A
C1441      C1442   1.407       .  A
C1441      H1450   1.082       .  S
C1442      C1445   1.364       .  A
O1443      C1444   1.328       .  A
C1444      C1445   1.394       .  A
C1445      H1451   1.082       .  S
O1446      C1447   1.333       .  A
C1447      C1448   1.390       .  A
C1448      H1452   1.083       .  S
C1453      C1458   1.380   1_455  A
C1453      C1454   1.405       .  A
C1453      O1459   1.321       .  A
C1454      C1455   1.405       .  A
C1454      H1465   1.082       .  S
C1455      C1464   1.363       .  A
C1455      C1456   1.380   1_455  A
C1456      C1457   1.407       .  A
C1456      O1462   1.322       .  A
C1457      C1458   1.406       .  A
C1457      H1466   1.082       .  S
C1458      C1461   1.366       .  A
O1459      C1460   1.332   1_455  A
C1460      C1461   1.394       .  A
C1461      H1467   1.081       .  S
O1462      C1463   1.333       .  A
C1463      C1464   1.393   1_655  A
C1464      H1468   1.082       .  S
C1469      C1474   1.381   1_655  A
C1469      C1470   1.403       .  A
C1469      O1475   1.319       .  A
C1470      C1471   1.402       .  A
C1470      H1481   1.082       .  S
C1471      C1480   1.360       .  A
C1471      C1472   1.381   1_655  A
C1472      C1473   1.404       .  A
C1472      O1478   1.319       .  A
C1473      C1474   1.403       .  A
C1473      H1482   1.082       .  S
C1474      C1477   1.361       .  A
O1475      C1476   1.331       .  A
C1476      C1477   1.392   1_655  A
C1477      H1483   1.082       .  S
O1478      C1479   1.330       .  A
C1479      C1480   1.392   1_455  A
C1480      H1484   1.082       .  S
C1485      C1490   1.381       .  A
C1485      C1486   1.398       .  A
C1485      O1491   1.312       .  A
C1486      C1487   1.396       .  A
C1486      H1497   1.082       .  S
C1487      C1496   1.356       .  A
C1487      C1488   1.380       .  A
C1488      C1489   1.404       .  A
C1488      O1494   1.318       .  A
C1489      C1490   1.403       .  A
C1489      H1498   1.082       .  S
C1490      C1493   1.364       .  A
O1491      C1492   1.328       .  A
C1492      C1493   1.392       .  A
C1493      H1499   1.082       .  S
O1494      C1495   1.331       .  A
C1495      C1496   1.388       .  A
C1496      H1500   1.083       .  S
C1501      C1506   1.380       .  A
C1501      C1502   1.407       .  A
C1501      O1507   1.322       .  A
C1502      C1503   1.407       .  A
C1502      H1513   1.082       .  S
C1503      C1512   1.366       .  A
C1503      C1504   1.380       .  A
C1504      C1505   1.402       .  A
C1504      O1510   1.319       .  A
C1505      C1506   1.402       .  A
C1505      H1514   1.082       .  S
C1506      C1509   1.360       .  A
O1507      C1508   1.333       .  A
C1508      C1509   1.392       .  A
C1509      H1515   1.081       .  S
O1510      C1511   1.331       .  A
C1511      C1512   1.396       .  A
C1512      H1516   1.082       .  S
C1517      C1522   1.381       .  A
C1517      C1518   1.398       .  A
C1517      O1523   1.313       .  A
C1518      C1519   1.396       .  A
C1518      H1529   1.082       .  S
C1519      C1528   1.356       .  A
C1519      C1520   1.380       .  A
C1520      C1521   1.406       .  A
C1520      O1526   1.321       .  A
C1521      C1522   1.406       .  A
C1521      H1530   1.082       .  S
C1522      C1525   1.366       .  A
O1523      C1524   1.327       .  A
C1524      C1525   1.391       .  A
C1525      H1531   1.082       .  S
O1526      C1527   1.333       .  A
C1527      C1528   1.387       .  A
C1528      H1532   1.083       .  S
C1533      C1538   1.380       .  A
C1533      C1534   1.408       .  A
C1533      O1539   1.321       .  A
C1534      C1535   1.407       .  A
C1534      H1545   1.082       .  S
C1535      C1544   1.370       .  A
C1535      C1536   1.380       .  A
C1536      C1537   1.400       .  A
C1536      O1542   1.313       .  A
C1537      C1538   1.397       .  A
C1537      H1546   1.082       .  S
C1538      C1541   1.358       .  A
O1539      C1540   1.333       .  A
C1540      C1541   1.389       .  A
C1541      H1547   1.083       .  S
O1542      C1543   1.329       .  A
C1543      C1544   1.394       .  A
C1544      H1548   1.082       .  S
C1549      C1554   1.381       .  A
C1549      C1550   1.399       .  A
C1549      O1555   1.319       .  A
C1550      C1551   1.401       .  A
C1550      H1561   1.082       .  S
C1551      C1560   1.354       .  A
C1551      C1552   1.381       .  A
C1552      C1553   1.404       .  A
C1552      O1558   1.323       .  A
C1553      C1554   1.405       .  A
C1553      H1562   1.082       .  S
C1554      C1557   1.361       .  A
O1555      C1556   1.329       .  A
C1556      C1557   1.393       .  A
C1557      H1563   1.082       .  S
O1558      C1559   1.331       .  A
C1559      C1560   1.390       .  A
C1560      H1564   1.083       .  S
C1565      C1570   1.379       .  A
C1565      C1566   1.402       .  A
C1565      O1571   1.315       .  A
C1566      C1567   1.400       .  A
C1566      H1577   1.082       .  S
C1567      C1576   1.360       .  A
C1567      C1568   1.380       .  A
C1568      C1569   1.404       .  A
C1568      O1574   1.319       .  A
C1569      C1570   1.403       .  A
C1569      H1578   1.082       .  S
C1570      C1573   1.363       .  A
O1571      C1572   1.331       .  A
C1572      C1573   1.391       .  A
C1573      H1579   1.082       .  S
O1574      C1575   1.332       .  A
C1575      C1576   1.390       .  A
C1576      H1580   1.083       .  S
C1581      C1586   1.380       .  A
C1581      C1582   1.402       .  A
C1581      O1587   1.319       .  A
C1582      C1583   1.402       .  A
C1582      H1593   1.082       .  S
C1583      C1592   1.356       .  A
C1583      C1584   1.380       .  A
C1584      C1585   1.405       .  A
C1584      O1590   1.323       .  A
C1585      C1586   1.406       .  A
C1585      H1594   1.082       .  S
C1586      C1589   1.363       .  A
O1587      C1588   1.331       .  A
C1588      C1589   1.393       .  A
C1589      H1595   1.082       .  S
O1590      C1591   1.331       .  A
C1591      C1592   1.393       .  A
C1592      H1596   1.083       .  S
C1597      C1602   1.380       .  A
C1597      C1598   1.407       .  A
C1597      O1603   1.321       .  A
C1598      C1599   1.406       .  A
C1598      H1609   1.082       .  S
C1599      C1608   1.368       .  A
C1599      C1600   1.381       .  A
C1600      C1601   1.401       .  A
C1600      O1606   1.315       .  A
C1601      C1602   1.399       .  A
C1601      H1610   1.082       .  S
C1602      C1605   1.360       .  A
O1603      C1604   1.333       .  A
C1604      C1605   1.389       .  A
C1605      H1611   1.083       .  S
O1606      C1607   1.329       .  A
C1607      C1608   1.393       .  A
C1608      H1612   1.082       .  S
C1613      C1618   1.381       .  A
C1613      C1614   1.396       .  A
C1613      O1619   1.315       .  A
C1614      C1615   1.397       .  A
C1614      H1625   1.083       .  S
C1615      C1624   1.350       .  A
C1615      C1616   1.381       .  A
C1616      C1617   1.407       .  A
C1616      O1622   1.324       .  A
C1617      C1618   1.408       .  A
C1617      H1626   1.082       .  S
C1618      C1621   1.365       .  A
O1619      C1620   1.327       .  A
C1620      C1621   1.394       .  A
C1621      H1627   1.082       .  S
O1622      C1623   1.333       .  A
C1623      C1624   1.389       .  A
C1624      H1628   1.083       .  S
C1629      C1634   1.380       .  A
C1629      C1630   1.399       .  A
C1629      O1635   1.313       .  A
C1630      C1631   1.397       .  A
C1630      H1641   1.082       .  S
C1631      C1640   1.357       .  A
C1631      C1632   1.380       .  A
C1632      C1633   1.407       .  A
C1632      O1638   1.320       .  A
C1633      C1634   1.406       .  A
C1633      H1642   1.082       .  S
C1634      C1637   1.367       .  A
O1635      C1636   1.328       .  A
C1636      C1637   1.393       .  A
C1637      H1643   1.082       .  S
O1638      C1639   1.332       .  A
C1639      C1640   1.389       .  A
C1640      H1644   1.083       .  S
C1645      C1650   1.381       .  A
C1645      C1646   1.397       .  A
C1645      O1651   1.310       .  A
C1646      C1647   1.395       .  A
C1646      H1657   1.082       .  S
C1647      C1656   1.355       .  A
C1647      C1648   1.380       .  A
C1648      C1649   1.406       .  A
C1648      O1654   1.319       .  A
C1649      C1650   1.405       .  A
C1649      H1658   1.082       .  S
C1650      C1653   1.366       .  A
O1651      C1652   1.327       .  A
C1652      C1653   1.392       .  A
C1653      H1659   1.082       .  S
O1654      C1655   1.332       .  A
C1655      C1656   1.387       .  A
C1656      H1660   1.083       .  S
C1661      C1666   1.380       .  A
C1661      C1662   1.403       .  A
C1661      O1667   1.320       .  A
C1662      C1663   1.403       .  A
C1662      H1673   1.082       .  S
C1663      C1672   1.361       .  A
C1663      C1664   1.381       .  A
C1664      C1665   1.401       .  A
C1664      O1670   1.319       .  A
C1665      C1666   1.402       .  A
C1665      H1674   1.082       .  S
C1666      C1669   1.357       .  A
O1667      C1668   1.330       .  A
C1668      C1669   1.392       .  A
C1669      H1675   1.083       .  S
O1670      C1671   1.330       .  A
C1671      C1672   1.392       .  A
C1672      H1676   1.082       .  S
C1677      C1682   1.380       .  A
C1677      C1678   1.397       .  A
C1677      O1683   1.312       .  A
C1678      C1679   1.396       .  A
C1678      H1689   1.082       .  S
C1679      C1688   1.355       .  A
C1679      C1680   1.380       .  A
C1680      C1681   1.406       .  A
C1680      O1686   1.320       .  A
C1681      C1682   1.405       .  A
C1681      H1690   1.082       .  S
C1682      C1685   1.365       .  A
O1683      C1684   1.328       .  A
C1684      C1685   1.393       .  A
C1685      H1691   1.082       .  S
O1686      C1687   1.333       .  A
C1687      C1688   1.387       .  A
C1688      H1692   1.083       .  S
C1693      C1698   1.380       .  A
C1693      C1694   1.404       .  A
C1693      O1699   1.318       .  A
C1694      C1695   1.403       .  A
C1694      H1705   1.082       .  S
C1695      C1704   1.364       .  A
C1695      C1696   1.380       .  A
C1696      C1697   1.400       .  A
C1696      O1702   1.313       .  A
C1697      C1698   1.398       .  A
C1697      H1706   1.082       .  S
C1698      C1701   1.359       .  A
O1699      C1700   1.331       .  A
C1700      C1701   1.389       .  A
C1701      H1707   1.083       .  S
O1702      C1703   1.329       .  A
C1703      C1704   1.392       .  A
C1704      H1708   1.082       .  S
