geometry optimzed in LAMMPS
_audit_creation_date              2020-11-30 
_audit_creation_method            'lammps2cif' 
_symmetry_space_group_name_H-M    'P1' 
_symmetry_Int_Tables_number       1 
_symmetry_cell_setting            triclinic 
loop_ 
_symmetry_equiv_pos_as_xyz 
  x,y,z 
_cell_length_a                    57.59567392 
_cell_length_b                    57.63181572694419 
_cell_length_c                    56.602299863307934 
_cell_angle_alpha                 89.59000856509577 
_cell_angle_beta                  90.66314068146639 
_cell_angle_gamma                 91.0835640416574 
loop_ 
_atom_site_label 
_atom_site_type_symbol 
_atom_site_fract_x 
_atom_site_fract_y 
_atom_site_fract_z 
_atom_site_charge 
O1          O  0.76756481  0.75121970  0.69838964    -0.79600
O2          O  0.76054473  0.73533470  0.80281554    -0.64300
O3          O  0.74278495  0.73928908  0.73825434    -1.10900
C4          C  0.74080100  0.81992937  0.75362657     1.07300
O5          O  0.73143275  0.75776400  0.81234976    -0.77500
O6          O  0.70456234  0.77939861  0.77990197    -0.65100
Ni7        Ni  0.75947782  0.72327537  0.71507598     1.34900
C8          C  0.69656235  0.77572141  0.75923922     0.86000
O9          O  0.75167607  0.70277400  0.76970331    -0.78000
O10         O  0.75225942  0.69465949  0.73083806    -0.88300
C11         C  0.74748061  0.74388864  0.81820424     0.85600
O12         O  0.78998822  0.72407510  0.72843205    -0.66500
O13         O  0.73736909  0.81383998  0.77509231    -0.85800
C14         C  0.79828389  0.73149990  0.74781409     0.86400
C15         C  0.75030166  0.68848327  0.75247542     1.08000
H16         H  0.76778344  0.77543790  0.77075960     0.39800
O17         O  0.75201602  0.76954978  0.76932237    -1.08500
O18         O  0.70968828  0.77261054  0.74152390    -0.65100
Ni19       Ni  0.74317463  0.77235218  0.73690081     1.26300
O20         O  0.78545692  0.73759887  0.76472572    -0.65300
O21         O  0.74391129  0.80554894  0.73696111    -0.77600
C22         C  0.75271636  0.76517699  0.69019789     0.85800
O23         O  0.73715386  0.77315372  0.70349234    -0.64800
Ni24       Ni  0.73487387  0.78511281  0.79260490     1.27400
Ni25       Ni  0.75232877  0.73634768  0.77023175     1.26100
H26         H  0.72686383  0.73376399  0.73712289     0.40300
O27         O  0.30618491  0.74848406  0.77613482    -0.79600
O28         O  0.19822751  0.72936064  0.76697326    -0.64300
O29         O  0.26389501  0.73343038  0.75543512    -1.10900
C30         C  0.24769433  0.81441066  0.74563436     1.07300
O31         O  0.19311294  0.75056804  0.73497106    -0.77500
O32         O  0.22373836  0.77523868  0.71023514    -0.65100
Ni33       Ni  0.28607328  0.72102624  0.77690220     1.34900
C34         C  0.24230823  0.76636447  0.70302443     0.86000
O35         O  0.23233018  0.69693695  0.76441024    -0.78000
O36         O  0.26866472  0.69213738  0.77871152    -0.88300
C37         C  0.18473345  0.73780756  0.75120640     0.85600
O38         O  0.27251746  0.73110922  0.80569759    -0.66500
O39         O  0.22634222  0.80798568  0.74493092    -0.85800
C40         C  0.25140425  0.73157665  0.81200401     0.86400
C41         C  0.24859371  0.68419836  0.77263658     1.08000
H42         H  0.23188191  0.77018292  0.77547181     0.39800
O43         O  0.23296370  0.76372530  0.75982867    -1.08500
O44         O  0.25887044  0.76111937  0.71707417    -0.65100
Ni45       Ni  0.26465950  0.76637681  0.75050962     1.26300
O46         O  0.23462395  0.73148787  0.79695886    -0.65300
O47         O  0.26436266  0.79995846  0.74616350    -0.77600
C48         C  0.31222153  0.76042495  0.75805137     0.85800
O49         O  0.29703523  0.76701625  0.74309598    -0.64800
Ni50       Ni  0.21040632  0.77879545  0.74061554     1.27400
Ni51       Ni  0.23158258  0.73040812  0.76248486     1.26100
H52         H  0.26629914  0.72584969  0.74052318     0.40300
N53         N  0.76817502  0.76717326  0.49674844    -0.02200
C54         C  0.75320672  0.76666584  0.51512359     0.00400
C55         C  0.73052374  0.76786227  0.50720513    -0.22500
C56         C  0.73134207  0.76917716  0.48310889    -0.22700
C57         C  0.75453284  0.76866341  0.47702452     0.00300
H58         H  0.71505346  0.76795493  0.51787912     0.14100
H59         H  0.71652420  0.76999696  0.47121598     0.14100
N60         N  0.99147669  0.73674543  0.75070051    -0.02200
C61         C  0.01076996  0.73727693  0.76490680     0.00400
C62         C  0.00454746  0.73537064  0.78835488    -0.22500
C63         C  0.98081300  0.73337409  0.78877046    -0.22700
C64         C  0.97311364  0.73426797  0.76557566     0.00300
H65         H  0.01611852  0.73505307  0.80355353     0.14100
H66         H  0.97022558  0.73168793  0.80438583     0.14100
N67         N  0.00375273  0.68041821  0.28292974    -0.02200
C68         C  0.02154969  0.67672490  0.26799417     0.00400
C69         C  0.01362086  0.66498526  0.24815482    -0.22500
C70         C  0.99014254  0.66172092  0.25068924    -0.22700
C71         C  0.98449928  0.67160255  0.27196284     0.00300
H72         H  0.02365746  0.66035150  0.23290237     0.14100
H73         H  0.97821926  0.65476319  0.23750287     0.14100
N74         N  0.97729000  0.74371020  0.48468773    -0.35300
N75         N  0.02774521  0.73903045  0.48811430    -0.55900
N76         N  0.02545726  0.74510469  0.53947860    -0.35300
N77         N  0.97505246  0.75121928  0.53599817    -0.55900
C78         C  0.98222466  0.74217695  0.46137624     0.28300
C79         C  0.95483334  0.75005187  0.48651504     0.28300
C80         C  0.04874416  0.74310111  0.53734029     0.28300
C81         C  0.02064091  0.74702983  0.56274960     0.28300
C82         C  0.02519478  0.73551288  0.46460401     0.36900
C83         C  0.05070508  0.73757504  0.49322881     0.36900
C84         C  0.95208895  0.75188865  0.53079714     0.36900
C85         C  0.97707288  0.75012107  0.55982987     0.36900
C86         C  0.96234790  0.74702401  0.44827049    -0.20600
C87         C  0.94528350  0.75229743  0.46403461    -0.20600
C88         C  0.05893805  0.74409541  0.55965315    -0.20600
C89         C  0.04129250  0.74654081  0.57560889    -0.20600
C90         C  0.04677004  0.73218820  0.45466655    -0.21700
C91         C  0.06284117  0.73358163  0.47267201    -0.21700
C92         C  0.93943126  0.75160456  0.55148481    -0.21700
C93         C  0.95518739  0.75038872  0.56980562    -0.21700
C94         C  0.00393270  0.73599340  0.45158516    -0.17000
C95         C  0.94217650  0.75271180  0.50774281    -0.17000
C96         C  0.99821151  0.74858795  0.57292694    -0.17000
C97         C  0.06115331  0.73980620  0.51602803    -0.17000
H98         H  0.96009149  0.74684160  0.42929848     0.15900
H99         H  0.92766903  0.75688794  0.45938446     0.15900
H100        H  0.07719856  0.74283169  0.56409565     0.15900
H101        H  0.04348347  0.74766779  0.59458440     0.15900
H102        H  0.05068010  0.72948326  0.43624839     0.14200
H103        H  0.08139408  0.73189490  0.47071058     0.14200
H104        H  0.92074421  0.75183400  0.55323590     0.14200
H105        H  0.95092011  0.74953190  0.58836428     0.14200
H106        H  0.98782716  0.73830728  0.49846333     0.27400
H107        H  0.01350239  0.74489529  0.52586235     0.27400
N108        N  0.23631623  0.73664453  0.50952339    -0.02200
C109        C  0.25186854  0.73391263  0.52759938     0.00400
C110        C  0.27395691  0.73105732  0.51893724    -0.22500
C111        C  0.27215520  0.73231444  0.49477186    -0.22700
C112        C  0.24904082  0.73583660  0.48942485     0.00300
H113        H  0.28985430  0.72942506  0.52914620     0.14100
H114        H  0.28629493  0.73146778  0.48239656     0.14100
O115        O  0.19223368  0.75235955  0.27820376    -0.79600
O116        O  0.29803617  0.76126496  0.27784293    -0.64300
O117        O  0.23482147  0.76266601  0.25710620    -1.10900
C118        C  0.24647350  0.68234909  0.24667901     1.07300
O119        O  0.30504229  0.74405292  0.24396245    -0.77500
O120        O  0.27379381  0.72372931  0.21435577    -0.65100
Ni121      Ni  0.21213525  0.77905867  0.27381367     1.34900
C122        C  0.25375287  0.72852539  0.20637373     0.86000
O123        O  0.26757664  0.79585763  0.27346027    -0.78000
O124        O  0.23042328  0.80685570  0.27073478    -0.88300
C125        C  0.31212740  0.75547825  0.26189014     0.85600
O126        O  0.22336304  0.77439479  0.30524796    -0.66500
O127        O  0.26802306  0.68780572  0.24490446    -0.85800
C128        C  0.24068918  0.76405514  0.31409647     0.86400
C129        C  0.25211467  0.81144620  0.27251785     1.08000
H130        H  0.26394655  0.72247990  0.27880364     0.39800
O131        O  0.26323321  0.73033684  0.26366474    -1.08500
O132        O  0.23664700  0.73230146  0.21989743    -0.65100
Ni133      Ni  0.23171523  0.72981641  0.25382047     1.26300
O134        O  0.25773235  0.75761867  0.30165702    -0.65300
O135        O  0.23048130  0.69684168  0.25066489    -0.77600
C136        C  0.18562895  0.73716330  0.26332607     0.85800
O137        O  0.19913412  0.73050821  0.24721197    -0.64800
Ni138      Ni  0.28581968  0.71635562  0.24493825     1.27400
Ni139      Ni  0.26591784  0.76285650  0.26879868     1.26100
H140        H  0.23522564  0.76951555  0.24147976     0.40300
O141        O  0.69895193  0.71983323  0.23735728    -0.79600
O142        O  0.80769218  0.71422289  0.24555702    -0.64300
O143        O  0.74293200  0.71308263  0.25768305    -1.10900
C144        C  0.75273715  0.79488562  0.25179032     1.07300
O145        O  0.81453527  0.74304516  0.27034988    -0.77500
O146        O  0.78161588  0.76780214  0.29074441    -0.65100
Ni147      Ni  0.72257552  0.69650869  0.23709250     1.34900
C148        C  0.76523845  0.75707987  0.30125531     0.86000
O149        O  0.77675903  0.68045666  0.25479996    -0.78000
O150        O  0.74362530  0.67094809  0.23570210    -0.88300
C151        C  0.82117533  0.72509099  0.25963436     0.85600
O152        O  0.73447759  0.70988767  0.20874138    -0.66500
O153        O  0.77444291  0.79173118  0.24972815    -0.85800
C154        C  0.75546254  0.71039376  0.20222531     0.86400
C155        C  0.76295341  0.66558854  0.24543797     1.08000
H156        H  0.77082057  0.74900518  0.22982771     0.39800
O157        O  0.77136372  0.74549421  0.24647609    -1.08500
O158        O  0.74900742  0.74611164  0.29033986    -0.65100
Ni159      Ni  0.74018974  0.74577697  0.25727316     1.26300
O160        O  0.77225494  0.70882311  0.21687923    -0.65300
O161        O  0.73794351  0.77891860  0.25663889    -0.77600
C162        C  0.69328258  0.73433038  0.25308677     0.85800
O163        O  0.70843535  0.74395882  0.26648313    -0.64800
Ni164      Ni  0.79354975  0.76660821  0.25954027     1.27400
Ni165      Ni  0.77509298  0.71301386  0.25065224     1.26100
H166        H  0.74072247  0.70709267  0.27349750     0.40300
N167        N  0.77785705  0.72676026  0.00965416    -0.02200
C168        C  0.78372305  0.73871470  0.02945388     0.00400
C169        C  0.78955720  0.76143007  0.02374520    -0.22500
C170        C  0.78678712  0.76357344  0.99967003    -0.22700
C171        C  0.77963533  0.74202744  0.99142504     0.00300
H172        H  0.79425996  0.77521948  0.03586645     0.14100
H173        H  0.78927230  0.77927877  0.98933802     0.14100
N174        N  0.74399373  0.49862964  0.76669508    -0.02200
C175        C  0.74672270  0.48046135  0.75191845     0.00400
C176        C  0.74301171  0.48733278  0.72875780    -0.22500
C177        C  0.73772803  0.51047535  0.72926922    -0.22700
C178        C  0.73849471  0.51700310  0.75272925     0.00300
H179        H  0.74374075  0.47657224  0.71320158     0.14100
H180        H  0.73423620  0.52148308  0.71411854     0.14100
N181        N  0.69297783  0.26974578  0.99682871    -0.02200
C182        C  0.68775688  0.25774236  0.97695132     0.00400
C183        C  0.67591286  0.23735028  0.98249475    -0.22500
C184        C  0.67360521  0.23689840  0.00665386    -0.22700
C185        C  0.68439859  0.25688418  0.01489985     0.00300
H186        H  0.67036659  0.22386863  0.97035227     0.14100
H187        H  0.66609680  0.22294511  0.01712541     0.14100
N188        N  0.74987531  0.52068232  0.03072923    -0.35300
N189        N  0.74764430  0.47066317  0.03111279    -0.55900
N190        N  0.74774762  0.47088712  0.97929707    -0.35300
N191        N  0.75235259  0.52056627  0.97872683    -0.55900
C192        C  0.75512858  0.51649982  0.05380400     0.28300
C193        C  0.75581680  0.54305242  0.02602375     0.28300
C194        C  0.74962395  0.44799273  0.98391706     0.28300
C195        C  0.75361169  0.47433768  0.95641286     0.28300
C196        C  0.74523407  0.47425505  0.05455067     0.36900
C197        C  0.74176582  0.44819858  0.02720319     0.36900
C198        C  0.74886928  0.54333124  0.98237477     0.36900
C199        C  0.74929655  0.51706648  0.95528989     0.36900
C200        C  0.76398376  0.53671534  0.06392342    -0.20600
C201        C  0.76451949  0.55338334  0.04641142    -0.20600
C202        C  0.75660292  0.43666288  0.96373702    -0.20600
C203        C  0.75933355  0.45332919  0.94642983    -0.20600
C204        C  0.73826184  0.45377039  0.06561726    -0.21700
C205        C  0.73577757  0.43737469  0.04826139    -0.21700
C206        C  0.74361436  0.55435999  0.96115779    -0.21700
C207        C  0.74395019  0.53771499  0.94398015    -0.21700
C208        C  0.75109627  0.49527607  0.06619778    -0.17000
C209        C  0.75265702  0.55472346  0.00412167    -0.17000
C210        C  0.75218574  0.49561991  0.94388819    -0.17000
C211        C  0.74339014  0.43682197  0.00525903    -0.17000
H212        H  0.76935537  0.53937674  0.08208926     0.15900
H213        H  0.77057043  0.57115136  0.04851633     0.15900
H214        H  0.75923734  0.41825181  0.96163094     0.15900
H215        H  0.76444095  0.45022821  0.92840167     0.15900
H216        H  0.73548808  0.45070142  0.08424203     0.14200
H217        H  0.73079646  0.41935664  0.05096714     0.14200
H218        H  0.74025522  0.57258525  0.95829106     0.14200
H219        H  0.74065767  0.54052388  0.92532410     0.14200
H220        H  0.74062164  0.50977906  0.01936458     0.27400
H221        H  0.73994366  0.48271872  0.99026743     0.27400
N222        N  0.77882865  0.47932661  0.24218768    -0.02200
C223        C  0.78335843  0.49505764  0.25945519     0.00400
C224        C  0.78843998  0.48396452  0.28061237    -0.22500
C225        C  0.78689124  0.46062255  0.27635214    -0.22700
C226        C  0.78087829  0.45835749  0.25280372     0.00300
H227        H  0.79287640  0.49196899  0.29734401     0.14100
H228        H  0.78934814  0.44679819  0.28912830     0.14100
O229        O  0.73926786  0.17204283  0.23468288    -0.79600
O230        O  0.73227437  0.28072909  0.23398304    -0.64300
O231        O  0.75238104  0.21871515  0.22806879    -1.10900
C232        C  0.75951410  0.22528911  0.31203252     1.07300
O233        O  0.76332738  0.28894851  0.25605486    -0.77500
O234        O  0.79189051  0.25838495  0.27688023    -0.65100
Ni235      Ni  0.73279693  0.19647679  0.21245378     1.34900
C236        C  0.80105480  0.24183600  0.26587540     0.86000
O237        O  0.73800900  0.25361116  0.19700240    -0.78000
O238        O  0.72422114  0.21819894  0.18806403    -0.88300
C239        C  0.74724698  0.29505849  0.24187957     0.85600
O240        O  0.70565228  0.20293181  0.22973545    -0.66500
O241        O  0.75811457  0.24722498  0.30910686    -0.85800
C242        C  0.69678829  0.22243411  0.23379369     0.86400
C243        C  0.72799909  0.23949533  0.18289014     1.08000
H244        H  0.72942423  0.24265035  0.27020254     0.39800
O245        O  0.74465502  0.24449494  0.26339594    -1.08500
O246        O  0.78910756  0.22483823  0.25775651    -0.65100
Ni247      Ni  0.75724966  0.21456055  0.26131789     1.26300
O248        O  0.70847141  0.24140006  0.23242435    -0.65300
O249        O  0.76113197  0.21105442  0.29496244    -0.77600
C250        C  0.75548601  0.16824387  0.24953111     0.85800
O251        O  0.76842015  0.18416618  0.25791291    -0.64800
Ni252      Ni  0.76046627  0.26724576  0.28194058     1.27400
Ni253      Ni  0.74124673  0.24952430  0.23030877     1.26100
H254        H  0.76710694  0.21921927  0.22004991     0.40300
O255        O  0.81221180  0.26588930  0.75843635    -0.79600
O256        O  0.70390009  0.27022713  0.75793824    -0.64300
O257        O  0.76624807  0.25047767  0.76504441    -1.10900
C258        C  0.76041204  0.23961343  0.68171969     1.07300
O259        O  0.69503104  0.24063654  0.73472814    -0.77500
O260        O  0.72622577  0.21132569  0.71813126    -0.65100
Ni261      Ni  0.78879333  0.26794339  0.78245707     1.34900
C262        C  0.74307512  0.20206761  0.72905722     0.86000
O263        O  0.73135739  0.26370731  0.79546291    -0.78000
O264        O  0.76780641  0.27077661  0.80841354    -0.88300
C265        C  0.68913876  0.25576722  0.74964502     0.85600
O266        O  0.78075840  0.29804971  0.77121466    -0.66500
O267        O  0.73865385  0.24250358  0.68385046    -0.85800
C268        C  0.76150191  0.30670096  0.76497314     0.86400
C269        C  0.74602669  0.26835019  0.81188340     1.08000
H270        H  0.74255941  0.27363167  0.72215925     0.39800
O271        O  0.74073611  0.25831036  0.72902458    -1.08500
O272        O  0.76079176  0.21369232  0.73624916    -0.65100
Ni273      Ni  0.77100384  0.24563923  0.73216235     1.26300
O274        O  0.74336194  0.29424802  0.76086082    -0.65300
O275        O  0.77489523  0.24030922  0.69892316    -0.77600
C276        C  0.81735114  0.24827295  0.74619188     0.85800
O277        O  0.80176727  0.23517851  0.73709837    -0.64800
Ni278      Ni  0.71801586  0.24234880  0.71021575     1.27400
Ni279      Ni  0.73543544  0.26139903  0.76213100     1.26100
H280        H  0.76527822  0.23554424  0.77286941     0.40300
N281        N  0.73553762  0.00981017  0.72951490    -0.02200
C282        C  0.74961412  0.99143305  0.72617579     0.00400
C283        C  0.77264402  0.99880888  0.72647075    -0.22500
C284        C  0.77280635  0.02231173  0.73011919    -0.22700
C285        C  0.74991949  0.02861844  0.73188059     0.00300
H286        H  0.78781186  0.98810573  0.72522478     0.14100
H287        H  0.78798610  0.03359947  0.73149536     0.14100
N288        N  0.50321349  0.77885912  0.73959798    -0.02200
C289        C  0.52164419  0.76436357  0.74017511     0.00400
C290        C  0.51411036  0.74185680  0.73566433    -0.22500
C291        C  0.49046494  0.74244960  0.73225530    -0.22700
C292        C  0.48415480  0.76526885  0.73489282     0.00300
H293        H  0.52470630  0.72656830  0.73502070     0.14100
H294        H  0.47899287  0.72768336  0.72908126     0.14100
N295        N  0.26663632  0.00724966  0.75536989    -0.02200
C296        C  0.25315301  0.98771415  0.75797682     0.00400
C297        C  0.22993794  0.99331199  0.75773761    -0.22500
C298        C  0.22892083  0.01688337  0.75448060    -0.22700
C299        C  0.25155967  0.02515561  0.75306934     0.00300
H300        H  0.21525957  0.98136859  0.75890470     0.14100
H301        H  0.21327763  0.02693424  0.75300555     0.14100
N302        N  0.52628786  0.98857656  0.74005429    -0.35300
N303        N  0.47565571  0.98748506  0.74508110    -0.55900
N304        N  0.47642417  0.03816265  0.74962002    -0.35300
N305        N  0.52705019  0.03924919  0.74456840    -0.55900
C306        C  0.52256523  0.96530362  0.74138805     0.28300
C307        C  0.54956962  0.99251756  0.74030398     0.28300
C308        C  0.45314453  0.03426749  0.74906562     0.28300
C309        C  0.48025862  0.06142198  0.75037638     0.28300
C310        C  0.47890648  0.96437335  0.74355502     0.36900
C311        C  0.45249918  0.99062703  0.74632387     0.36900
C312        C  0.55017581  0.03618055  0.74250547     0.36900
C313        C  0.52391508  0.06220034  0.74788416     0.36900
C314        C  0.54380474  0.95433288  0.74172351    -0.20600
C315        C  0.56072034  0.97136951  0.74074566    -0.20600
C316        C  0.44202741  0.05539796  0.74974899    -0.20600
C317        C  0.45904104  0.07243390  0.75080238    -0.20600
C318        C  0.45760835  0.95274121  0.74367152    -0.21700
C319        C  0.44094147  0.96930658  0.74549284    -0.21700
C320        C  0.56177880  0.05741916  0.74418978    -0.21700
C321        C  0.54521787  0.07383152  0.74753032    -0.21700
C322        C  0.50071715  0.95340900  0.74243060    -0.17000
C323        C  0.56128388  0.01449542  0.74050419    -0.17000
C324        C  0.50226651  0.07305996  0.75134298    -0.17000
C325        C  0.44142755  0.01232013  0.74824247    -0.17000
H326        H  0.54694439  0.93590021  0.74274489     0.15900
H327        H  0.57919449  0.96833854  0.74071341     0.15900
H328        H  0.42351900  0.05832329  0.74963379     0.15900
H329        H  0.45595906  0.09085396  0.75172449     0.15900
H330        H  0.45434003  0.93422527  0.74258246     0.14200
H331        H  0.42240899  0.96595407  0.74616787     0.14200
H332        H  0.58031085  0.06077463  0.74356719     0.14200
H333        H  0.54856840  0.09225288  0.74957397     0.14200
H334        H  0.51374250  0.00095037  0.73774735     0.27400
H335        H  0.48893508  0.02568359  0.75127299     0.27400
N336        N  0.50541894  0.24039336  0.80195261    -0.02200
C337        C  0.52370993  0.25490354  0.80661586     0.00400
C338        C  0.51624726  0.27414849  0.81869343    -0.22500
C339        C  0.49263249  0.27150443  0.82128720    -0.22700
C340        C  0.48642650  0.25079708  0.81063075     0.00300
H341        H  0.52670342  0.28903041  0.82408526     0.14100
H342        H  0.48105909  0.28408881  0.82861088     0.14100
O343        O  0.31407305  0.23466944  0.73961431    -0.79600
O344        O  0.20737202  0.23245206  0.73242969    -0.64300
O345        O  0.27008887  0.25442817  0.73261965    -1.10900
C346        C  0.25907183  0.25807743  0.81513940     1.07300
O347        O  0.19650445  0.26100852  0.75540570    -0.77500
O348        O  0.22958436  0.29124237  0.77119607    -0.65100
Ni349      Ni  0.29257936  0.23940685  0.71370976     1.34900
C350        C  0.24987924  0.29973097  0.76840764     0.86000
O351        O  0.23651332  0.24289230  0.69779927    -0.78000
O352        O  0.27347085  0.24307780  0.68574975    -0.88300
C353        C  0.19155498  0.24455015  0.74121781     0.85600
O354        O  0.28225899  0.20802180  0.71815444    -0.66500
O355        O  0.23823847  0.26285573  0.80915588    -0.85800
C356        C  0.26425380  0.19873899  0.72714227     0.86400
C357        C  0.25166512  0.24394442  0.68160454     1.08000
H358        H  0.24038930  0.22840170  0.77149439     0.39800
O359        O  0.24134758  0.24401155  0.76513007    -1.08500
O360        O  0.26784955  0.28713295  0.76730219    -0.65100
Ni361      Ni  0.27311666  0.25381930  0.76639679     1.26300
O362        O  0.24676580  0.21051479  0.73300836    -0.65300
O363        O  0.27454982  0.25277348  0.80025371    -0.77600
C364        C  0.31990642  0.24723447  0.75717772     0.85800
O365        O  0.30567492  0.26108660  0.76631543    -0.64800
Ni366      Ni  0.21882297  0.26144564  0.78128158     1.27400
Ni367      Ni  0.23880099  0.24295003  0.73163213     1.26100
H368        H  0.26989103  0.27038953  0.72733448     0.40300
N369        N  0.23194559  0.71749667  0.00932103    -0.02200
C370        C  0.22738987  0.73171275  0.99039848     0.00400
C371        C  0.22298741  0.75386655  0.99830392    -0.22500
C372        C  0.22513290  0.75347490  0.02246399    -0.22700
C373        C  0.23064053  0.73109420  0.02894607     0.00300
H374        H  0.21943444  0.76902656  0.98756367     0.14100
H375        H  0.22337441  0.76813828  0.03410997     0.14100
N376        N  0.25379177  0.49229051  0.76962283    -0.02200
C377        C  0.25308829  0.51230789  0.75694906     0.00400
C378        C  0.25189292  0.50759284  0.73308243    -0.22500
C379        C  0.25185047  0.48379040  0.73100741    -0.22700
C380        C  0.25306940  0.47478361  0.75369996     0.00300
H381        H  0.25064625  0.52008888  0.71878448     0.14100
H382        H  0.25087028  0.47408260  0.71471950     0.14100
N383        N  0.28484612  0.25184349  0.00865052    -0.02200
C384        C  0.28542380  0.23769550  0.98955300     0.00400
C385        C  0.28965496  0.21511440  0.99647774    -0.22500
C386        C  0.29204993  0.21525756  0.02059632    -0.22700
C387        C  0.28894097  0.23787947  0.02765098     0.00300
H388        H  0.29084292  0.20013886  0.98515503     0.14100
H389        H  0.29511071  0.20034915  0.03186588     0.14100
N390        N  0.25935533  0.50991144  0.98161812    -0.35300
N391        N  0.25861074  0.51059250  0.03313612    -0.55900
N392        N  0.26010996  0.45981493  0.03364446    -0.35300
N393        N  0.26389154  0.45950134  0.98222211    -0.55900
C394        C  0.26169301  0.53303423  0.98529188     0.28300
C395        C  0.26371422  0.50605865  0.95855443     0.28300
C396        C  0.26125615  0.46398106  0.05714094     0.28300
C397        C  0.26518017  0.43720892  0.03037560     0.28300
C398        C  0.25447805  0.53330090  0.02881254     0.36900
C399        C  0.25423414  0.50678823  0.05631354     0.36900
C400        C  0.26075525  0.46272104  0.95871403     0.36900
C401        C  0.26236749  0.43634977  0.98618326     0.36900
C402        C  0.26751374  0.54399885  0.96420344    -0.20600
C403        C  0.26886753  0.52699354  0.94739123    -0.20600
C404        C  0.26684254  0.44367750  0.06902221    -0.20600
C405        C  0.26945332  0.42684679  0.05216032    -0.20600
C406        C  0.24826765  0.54411433  0.04955154    -0.21700
C407        C  0.24801153  0.52734903  0.06689271    -0.21700
C408        C  0.25755471  0.44149226  0.94766097    -0.21700
C409        C  0.25871043  0.42480101  0.96502439    -0.21700
C410        C  0.25681062  0.54466789  0.00660842    -0.17000
C411        C  0.26158894  0.48444532  0.94688803    -0.17000
C412        C  0.26478996  0.42530048  0.00848526    -0.17000
C413        C  0.25601354  0.48517140  0.06830854    -0.17000
H414        H  0.27009114  0.56239087  0.96102712     0.15900
H415        H  0.27279502  0.52979915  0.92892233     0.15900
H416        H  0.26869559  0.44118970  0.08791724     0.15900
H417        H  0.27363102  0.40890062  0.05562367     0.15900
H418        H  0.24424367  0.56219666  0.05199677     0.14200
H419        H  0.24368384  0.53002822  0.08521669     0.14200
H420        H  0.25472999  0.43831798  0.92901694     0.14200
H421        H  0.25684048  0.40627424  0.96238337     0.14200
H422        H  0.25218355  0.49792787  0.99327591     0.27400
H423        H  0.25370951  0.47105499  0.02093871     0.27400
N424        N  0.20723086  0.49583534  0.23796033    -0.02200
C425        C  0.20160159  0.51564514  0.24920708     0.00400
C426        C  0.19312653  0.51064135  0.27147893    -0.22500
C427        C  0.19339367  0.48698817  0.27405755    -0.22700
C428        C  0.20188298  0.47833480  0.25323751     0.00300
H429        H  0.18810986  0.52291578  0.28478243     0.14100
H430        H  0.18813131  0.47714476  0.28951242     0.14100
N431        N  0.50311726  0.75815742  0.25901385    -0.02200
C432        C  0.52065905  0.74284085  0.26187108     0.00400
C433        C  0.51181745  0.72042829  0.26359785    -0.22500
C434        C  0.48816485  0.72182341  0.26152028    -0.22700
C435        C  0.48321877  0.74506190  0.25878944     0.00300
H436        H  0.52158281  0.70468512  0.26583244     0.14100
H437        H  0.47582579  0.70744575  0.26230607     0.14100
N438        N  0.75308664  0.98166252  0.26019319    -0.02200
C439        C  0.76541541  0.96260701  0.25496858     0.00400
C440        C  0.78896961  0.96740883  0.25655399    -0.22500
C441        C  0.79129647  0.99026679  0.26276001    -0.22700
C442        C  0.76906644  0.99869419  0.26498610     0.00300
H443        H  0.80299173  0.95557495  0.25359195     0.14100
H444        H  0.80755101  0.99985066  0.26450292     0.14100
N445        N  0.28524036  0.99777023  0.26149539    -0.02200
C446        C  0.27153124  0.01637140  0.25812877     0.00400
C447        C  0.24875790  0.01076440  0.26364829    -0.22500
C448        C  0.24844542  0.98795647  0.27078123    -0.22700
C449        C  0.27101350  0.98047315  0.26926091     0.00300
H450        H  0.23407817  0.02221670  0.26313261     0.14100
H451        H  0.23335979  0.97780654  0.27608394     0.14100
N452        N  0.49223763  0.96697409  0.23993106    -0.35300
N453        N  0.49379754  0.01708117  0.24208419    -0.55900
N454        N  0.54478738  0.01711814  0.24267754    -0.35300
N455        N  0.54311030  0.96662999  0.24309094    -0.55900
C456        C  0.46960452  0.97122445  0.24424291     0.28300
C457        C  0.49573334  0.94428458  0.24483461     0.28300
C458        C  0.54080093  0.03951418  0.24825352     0.28300
C459        C  0.56716153  0.01268778  0.24858555     0.28300
C460        C  0.47083405  0.01388172  0.23768800     0.36900
C461        C  0.49828653  0.03997983  0.23909070     0.36900
C462        C  0.53878657  0.94373888  0.23946055     0.36900
C463        C  0.56636186  0.97000522  0.24117530     0.36900
C464        C  0.45851278  0.95090934  0.25151589    -0.20600
C465        C  0.47490676  0.93390414  0.25172385    -0.20600
C466        C  0.56103140  0.04961925  0.25727140    -0.20600
C467        C  0.57764694  0.03272217  0.25747902    -0.20600
C468        C  0.46074297  0.03477006  0.23169504    -0.21700
C469        C  0.47813210  0.05131313  0.23256909    -0.21700
C470        C  0.55939704  0.93253679  0.23521816    -0.21700
C471        C  0.57680926  0.94915469  0.23617407    -0.21700
C472        C  0.45848789  0.99275230  0.24107336    -0.17000
C473        C  0.51690549  0.93241868  0.24229554    -0.17000
C474        C  0.57849957  0.99120255  0.24579483    -0.17000
C475        C  0.51958785  0.05124594  0.24480815    -0.17000
H476        H  0.44044222  0.94850974  0.25614013     0.15900
H477        H  0.47170648  0.91590778  0.25640972     0.15900
H478        H  0.56355207  0.06731341  0.26319487     0.15900
H479        H  0.59538513  0.03492069  0.26370308     0.15900
H480        H  0.44265504  0.03783921  0.22758433     0.14200
H481        H  0.47605825  0.06969851  0.22934362     0.14200
H482        H  0.56173699  0.91420745  0.23223638     0.14200
H483        H  0.59513667  0.94611160  0.23394685     0.14200
H484        H  0.50408070  0.97827050  0.23197500     0.27400
H485        H  0.53344534  0.00612341  0.23352006     0.27400
N486        N  0.50669686  0.22340995  0.25898121    -0.02200
C487        C  0.48849985  0.23787365  0.25748618     0.00400
C488        C  0.49608373  0.26072980  0.25799813    -0.22500
C489        C  0.51990451  0.26033769  0.25979061    -0.22700
C490        C  0.52599641  0.23723611  0.26018332     0.00300
H491        H  0.48544166  0.27599439  0.25714065     0.14100
H492        H  0.53157308  0.27527780  0.26007269     0.14100
N493        N  0.76516570  0.17931228  0.50035115    -0.02200
C494        C  0.75173565  0.17170638  0.48200193     0.00400
C495        C  0.73115964  0.16217409  0.49030595    -0.22500
C496        C  0.73168598  0.16469558  0.51448424    -0.22700
C497        C  0.75267883  0.17543668  0.52020171     0.00300
H498        H  0.71654364  0.15590218  0.47982550     0.14100
H499        H  0.71767527  0.16046355  0.52643803     0.14100
N500        N  0.00351925  0.21298548  0.72193462    -0.02200
C501        C  0.98541620  0.20927938  0.73664768     0.00400
C502        C  0.99291589  0.20038132  0.75801715    -0.22500
C503        C  0.01655803  0.19840069  0.75645342    -0.22700
C504        C  0.02270309  0.20633562  0.73418341     0.00300
H505        H  0.98242720  0.19655924  0.77335160     0.14100
H506        H  0.02813622  0.19287441  0.77050798     0.14100
N507        N  0.99281808  0.25112698  0.24869689    -0.02200
C508        C  0.97374703  0.25152979  0.23420098     0.00400
C509        C  0.98050375  0.25242551  0.21085326    -0.22500
C510        C  0.00436077  0.25213534  0.21086976    -0.22700
C511        C  0.01155322  0.25135469  0.23423100     0.00300
H512        H  0.96924502  0.25273439  0.19541800     0.14100
H513        H  0.01532689  0.25254616  0.19546976     0.14100
N514        N  0.96493447  0.23947599  0.46136769    -0.35300
N515        N  0.01561819  0.24387550  0.46090033    -0.55900
N516        N  0.01640107  0.24460928  0.51205094    -0.35300
N517        N  0.96636163  0.23818850  0.51254693    -0.55900
C518        C  0.96903005  0.23605761  0.43817535     0.28300
C519        C  0.94315260  0.23139451  0.46581138     0.28300
C520        C  0.03903486  0.24097994  0.50738969     0.28300
C521        C  0.01288748  0.23817290  0.53478132     0.28300
C522        C  0.01095528  0.24808373  0.43781199     0.36900
C523        C  0.03819225  0.24998443  0.46455241     0.36900
C524        C  0.94315076  0.23850474  0.50910039     0.36900
C525        C  0.97013670  0.24244073  0.53569951     0.36900
C526        C  0.94933074  0.22629567  0.42759314    -0.20600
C527        C  0.93313705  0.22308978  0.44507574    -0.20600
C528        C  0.04999071  0.23209988  0.52732624    -0.20600
C529        C  0.03348199  0.23030663  0.54462218    -0.20600
C530        C  0.03081255  0.25649235  0.42673184    -0.21700
C531        C  0.04792061  0.25797591  0.44370045    -0.21700
C532        C  0.93209752  0.24318401  0.53011318    -0.21700
C533        C  0.94923801  0.24585478  0.54696808    -0.21700
C534        C  0.98960595  0.24275663  0.42618319    -0.17000
C535        C  0.93176066  0.23221980  0.48784436    -0.17000
C536        C  0.99186592  0.24030151  0.54718207    -0.17000
C537        C  0.05040044  0.24715218  0.48618449    -0.17000
H538        H  0.94674063  0.22193591  0.40918843     0.15900
H539        H  0.91583479  0.21576831  0.44267449     0.15900
H540        H  0.06807077  0.22757806  0.52925769     0.15900
H541        H  0.03637585  0.22405337  0.56246919     0.15900
H542        H  0.03300139  0.26089574  0.40828044     0.14200
H543        H  0.06556105  0.26402654  0.44083081     0.14200
H544        H  0.91360022  0.24406261  0.53307023     0.14200
H545        H  0.94656214  0.24909937  0.56553928     0.14200
H546        H  0.97560869  0.24887451  0.47286145     0.27400
H547        H  0.00478422  0.25357433  0.50132337     0.27400
N548        N  0.22211510  0.28434169  0.49303395    -0.02200
C549        C  0.23680369  0.28923788  0.47506659     0.00400
C550        C  0.25800951  0.29698409  0.48394146    -0.22500
C551        C  0.25618751  0.29702826  0.50814930    -0.22700
C552        C  0.23401950  0.28904803  0.51330562     0.00300
H553        H  0.27352770  0.30087808  0.47394948     0.14100
H554        H  0.27007859  0.30077563  0.52066918     0.14100
O555        O  0.24704075  0.19030458  0.27092032    -0.79600
O556        O  0.23016516  0.29644983  0.25791091    -0.64300
O557        O  0.23599943  0.23195982  0.24765778    -1.10900
C558        C  0.31738488  0.24914629  0.25230584     1.07300
O559        O  0.25897446  0.30669600  0.23413731    -0.77500
O560        O  0.28423231  0.27497291  0.21235407    -0.65100
Ni561      Ni  0.22051282  0.21031649  0.26788596     1.34900
C562        C  0.27745321  0.25584900  0.20341712     0.86000
O563        O  0.19917009  0.26233614  0.24919756    -0.78000
O564        O  0.19207039  0.22758801  0.26606603    -0.88300
C565        C  0.24041364  0.31132509  0.24497166     0.85600
O566        O  0.22913455  0.22456897  0.29712971    -0.66500
O567        O  0.31237362  0.27061885  0.25144149    -0.85800
C568        C  0.22899212  0.24585736  0.30268198     0.86400
C569        C  0.18516491  0.24676736  0.25717111     1.08000
H570        H  0.26896937  0.26489748  0.27465687     0.39800
O571        O  0.26548416  0.26398317  0.25790210    -1.08500
O572        O  0.27017635  0.23864177  0.21570971    -0.65100
Ni573      Ni  0.26901123  0.23236108  0.24920158     1.26300
O574        O  0.22844954  0.26193176  0.28723218    -0.65300
O575        O  0.30221645  0.23287613  0.25101563    -0.77600
C576        C  0.26220744  0.18519062  0.25566767     0.85800
O577        O  0.27046052  0.20041307  0.24170059    -0.64800
Ni578      Ni  0.28462106  0.28733898  0.24341561     1.27400
Ni579      Ni  0.23235497  0.26402626  0.25349618     1.26100
H580        H  0.23085441  0.22878249  0.23160194     0.40300
C581        C  0.21445325  0.28605254  0.41171937    -0.26900
C582        C  0.22957603  0.26972740  0.40218606     0.06700
C583        C  0.24673196  0.26003975  0.41691123     0.26300
C584        C  0.24840375  0.26621526  0.44063905    -0.11400
C585        C  0.23323774  0.28229439  0.45020666    -0.25400
C586        C  0.21628327  0.29236990  0.43557597     0.37100
C587        C  0.22824380  0.26356232  0.37675255     0.06700
F588        F  0.26256366  0.24532277  0.40815394    -0.19100
H589        H  0.26187017  0.25863085  0.45158366     0.16500
F590        F  0.20226821  0.30898200  0.44400424    -0.22900
H591        H  0.20134690  0.29402236  0.40062590     0.18300
C592        C  0.22839939  0.24024459  0.36956373     0.26300
C593        C  0.22889487  0.23469991  0.34557648    -0.11400
C594        C  0.22893464  0.25221144  0.32813359    -0.25400
C595        C  0.22811471  0.27558820  0.33539159     0.37200
C596        C  0.22778581  0.28109349  0.35942976    -0.27000
F597        F  0.22772159  0.22274662  0.38573965    -0.19200
H598        H  0.22910445  0.21657196  0.34069417     0.16500
F599        F  0.22770858  0.29323817  0.31938822    -0.22900
H600        H  0.22766329  0.29916865  0.36453901     0.18300
C601        C  0.16673204  0.24948674  0.48684848    -0.26900
C602        C  0.14996382  0.26696778  0.48762078     0.06700
C603        C  0.15769233  0.29030269  0.48927233     0.26300
C604        C  0.18137956  0.29573218  0.49138198    -0.11400
C605        C  0.19788508  0.27823865  0.49093396    -0.25400
C606        C  0.19051008  0.25512545  0.48803104     0.37100
C607        C  0.12459242  0.26095633  0.48748643     0.06700
F608        F  0.14241011  0.30794842  0.48841233    -0.19100
H609        H  0.18699302  0.31369591  0.49301833     0.16500
F610        F  0.20632265  0.23806740  0.48662516    -0.22900
H611        H  0.16147492  0.23139663  0.48575675     0.18300
C612        C  0.11494907  0.24387175  0.47234829     0.26300
C613        C  0.09099960  0.23895770  0.47238203    -0.11400
C614        C  0.07611370  0.25132233  0.48700924    -0.25400
C615        C  0.08575734  0.26811508  0.50230171     0.37200
C616        C  0.10967804  0.27257422  0.50275418    -0.27000
F617        F  0.12844888  0.23246310  0.45693157    -0.19200
H618        H  0.08395010  0.22581636  0.46058966     0.16500
F619        F  0.07194144  0.28050489  0.51660513    -0.22900
H620        H  0.11653420  0.28527619  0.51512243     0.18300
C621        C  0.12494478  0.26909338  0.24029877    -0.26900
C622        C  0.11055014  0.25384449  0.25327031     0.06700
C623        C  0.12076867  0.23748569  0.26836000     0.26300
C624        C  0.14491585  0.23590009  0.26993710    -0.11400
C625        C  0.15957172  0.25050166  0.25639119    -0.25400
C626        C  0.14927272  0.26752111  0.24181715     0.37100
C627        C  0.08502111  0.25328312  0.24941053     0.06700
F628        F  0.10730178  0.22266884  0.28125105    -0.19100
H629        H  0.15212786  0.22283181  0.28158425     0.16500
F630        F  0.16255264  0.28196823  0.22831804    -0.22900
H631        H  0.11730712  0.28169386  0.22839281     0.18300
C632        C  0.07057850  0.27001564  0.25922803     0.26300
C633        C  0.04641316  0.26881217  0.25532708    -0.11400
C634        C  0.03646731  0.25106374  0.24137717    -0.25400
C635        C  0.05097777  0.23418003  0.23195825     0.37200
C636        C  0.07495231  0.23522179  0.23610154    -0.27000
F637        F  0.07985902  0.28746486  0.27248497    -0.19200
H638        H  0.03556139  0.28210692  0.26254136     0.16500
F639        F  0.04190716  0.21666855  0.21862481    -0.22900
H640        H  0.08578954  0.22204447  0.22862772     0.18300
C641        C  0.99003863  0.22520605  0.36171223    -0.26900
C642        C  0.99196260  0.24691150  0.35029225     0.06700
C643        C  0.99238351  0.26717919  0.36407538     0.26300
C644        C  0.99052252  0.26567043  0.38861709    -0.11400
C645        C  0.98908929  0.24398787  0.39995676    -0.25400
C646        C  0.98895840  0.22371231  0.38634742     0.37100
C647        C  0.99293334  0.24834008  0.32408707     0.06700
F648        F  0.99542384  0.28841576  0.35392938    -0.19100
H649        H  0.99105556  0.28143195  0.39894416     0.16500
F650        F  0.98794911  0.20251101  0.39692891    -0.22900
H651        H  0.98931082  0.20936015  0.35154552     0.18300
C652        C  0.00732348  0.23372231  0.31112004     0.26300
C653        C  0.00719370  0.23468958  0.28641305    -0.11400
C654        C  0.99317104  0.25054962  0.27418539    -0.25400
C655        C  0.97942811  0.26568125  0.28716602     0.37200
C656        C  0.97905296  0.26429350  0.31179382    -0.27000
F657        F  0.02177685  0.21876777  0.32229605    -0.19200
H658        H  0.01792558  0.22288850  0.27677330     0.16500
F659        F  0.96662704  0.28208929  0.27607423    -0.22900
H660        H  0.96770312  0.27564768  0.32126909     0.18300
C661        C  0.00612105  0.25053402  0.61194114    -0.26900
C662        C  0.99552377  0.23098200  0.62248013     0.06700
C663        C  0.98279480  0.21522196  0.60835581     0.26300
C664        C  0.98138070  0.21857663  0.58395366    -0.11400
C665        C  0.99244475  0.23778926  0.57330490    -0.25400
C666        C  0.00466810  0.25391963  0.58747462     0.37100
C667        C  0.99816726  0.22674412  0.64811177     0.06700
F668        F  0.97167498  0.19663917  0.61821614    -0.19100
H669        H  0.97186298  0.20602990  0.57325405     0.16500
F670        F  0.01539948  0.27270865  0.57756932    -0.22900
H671        H  0.01592614  0.26287166  0.62262784     0.18300
C672        C  0.00847493  0.20632869  0.65650285     0.26300
C673        C  0.01035300  0.20209299  0.68077073    -0.11400
C674        C  0.00197900  0.21808383  0.69702096    -0.25400
C675        C  0.99218520  0.23878109  0.68860588     0.37200
C676        C  0.99034446  0.24305459  0.66431281    -0.27000
F677        F  0.01696648  0.19065753  0.64119752    -0.19200
H678        H  0.01815404  0.18619534  0.68698917     0.16500
F679        F  0.98525732  0.25524727  0.70379009    -0.22900
H680        H  0.98266045  0.25902503  0.65810554     0.18300
C681        C  0.81958799  0.21594285  0.50698834    -0.26900
C682        C  0.83573606  0.20222135  0.49537990     0.06700
C683        C  0.82831531  0.18105777  0.48541182     0.26300
C684        C  0.80513777  0.17374439  0.48717842    -0.11400
C685        C  0.78899524  0.18730702  0.49895999    -0.25400
C686        C  0.79635917  0.20863508  0.50871179     0.37100
C687        C  0.86023697  0.21010788  0.49344064     0.06700
F688        F  0.84338123  0.16775464  0.47348274    -0.19100
H689        H  0.79967579  0.15740938  0.47935853     0.16500
F690        F  0.78096694  0.22278625  0.51904100    -0.22900
H691        H  0.82499716  0.23237669  0.51464073     0.18300
C692        C  0.86600213  0.23131662  0.48232866     0.26300
C693        C  0.88928876  0.23836786  0.48017804    -0.11400
C694        C  0.90705021  0.22445730  0.48927696    -0.25400
C695        C  0.90126946  0.20333065  0.50051698     0.37200
C696        C  0.87804536  0.19619425  0.50246569    -0.27000
F697        F  0.84911905  0.24493672  0.47316708    -0.19200
H698        H  0.89350743  0.25472251  0.47155915     0.16500
F699        F  0.91815558  0.18965909  0.50961164    -0.22900
H700        H  0.87390532  0.17986617  0.51118894     0.18300
C701        C  0.42703292  0.23195899  0.23511089    -0.26900
C702        C  0.41506067  0.22855686  0.25633802     0.06700
C703        C  0.42768050  0.22481744  0.27739037     0.26300
C704        C  0.45197020  0.22588692  0.27735353    -0.11400
C705        C  0.46381353  0.23096396  0.25640695    -0.25400
C706        C  0.45128346  0.23346535  0.23517051     0.37100
C707        C  0.38980218  0.23244751  0.25684916     0.06700
F708        F  0.41646028  0.22142512  0.29812095    -0.19100
H709        H  0.46147917  0.22424288  0.29388906     0.16500
F710        F  0.46247516  0.23880641  0.21481139    -0.22900
H711        H  0.41754630  0.23507054  0.21879097     0.18300
C712        C  0.38138847  0.25215643  0.26815298     0.26300
C713        C  0.35781259  0.25735765  0.26681408    -0.11400
C714        C  0.34212436  0.24279038  0.25452430    -0.25400
C715        C  0.35052582  0.22271989  0.24359491     0.37200
C716        C  0.37425194  0.21779576  0.24455227    -0.27000
F717        F  0.39619507  0.26689250  0.27969413    -0.19200
H718        H  0.35181709  0.27288542  0.27531251     0.16500
F719        F  0.33602423  0.20844305  0.23109573    -0.22900
H720        H  0.38055786  0.20271388  0.23548091     0.18300
C721        C  0.50456892  0.10903902  0.27148053    -0.26900
C722        C  0.51179513  0.12460969  0.25373862     0.06700
C723        C  0.52318666  0.11604226  0.23382033     0.26300
C724        C  0.52670278  0.09222005  0.23145742    -0.11400
C725        C  0.51887946  0.07665338  0.24887838    -0.25400
C726        C  0.50795259  0.08521564  0.26903239     0.37100
C727        C  0.50803375  0.14981341  0.25628085     0.06700
F728        F  0.53104925  0.13076293  0.21674848    -0.19100
H729        H  0.53498826  0.08582382  0.21577070     0.16500
F730        F  0.50001429  0.07039176  0.28598215    -0.22900
H731        H  0.49587595  0.11531754  0.28698635     0.18300
C732        C  0.49660320  0.16249139  0.23843138     0.26300
C733        C  0.49546205  0.18664960  0.23982787    -0.11400
C734        C  0.50569847  0.19846720  0.25896588    -0.25400
C735        C  0.51582868  0.18572752  0.27749803     0.37200
C736        C  0.51691321  0.16154885  0.27617689    -0.27000
F737        F  0.48680786  0.15152467  0.21954440    -0.19200
H738        H  0.48737642  0.19626838  0.22555312     0.16500
F739        F  0.52485646  0.19675812  0.29670240    -0.22900
H740        H  0.52543903  0.15204521  0.29028156     0.18300
C741        C  0.29812708  0.07601494  0.26530362    -0.26900
C742        C  0.28401328  0.08869549  0.24974230     0.06700
C743        C  0.26870638  0.07692639  0.23432590     0.26300
C744        C  0.26634116  0.05285532  0.23571509    -0.11400
C745        C  0.27922784  0.04023605  0.25240775    -0.25400
C746        C  0.29583807  0.05184882  0.26662906     0.37100
C747        C  0.28198454  0.11392187  0.25246345     0.06700
F748        F  0.25439420  0.08888306  0.21963139    -0.19100
H749        H  0.25326380  0.04417825  0.22486140     0.16500
F750        F  0.30797451  0.04027400  0.28351667    -0.22900
H751        H  0.30976748  0.08497624  0.27749337     0.18300
C752        C  0.27133271  0.12256223  0.27265653     0.26300
C753        C  0.26569243  0.14591972  0.27383320    -0.11400
C754        C  0.27061625  0.16111310  0.25492773    -0.25400
C755        C  0.28226901  0.15258166  0.23509704     0.37200
C756        C  0.28770517  0.12906601  0.23386332    -0.27000
F757        F  0.26503191  0.10807851  0.29059685    -0.19200
H758        H  0.25684939  0.15196014  0.28934806     0.16500
F759        F  0.28732727  0.16658280  0.21640009    -0.22900
H760        H  0.29568880  0.12248792  0.21808672     0.18300
C761        C  0.34858486  0.98800103  0.27272570    -0.26900
C762        C  0.35831092  0.99462347  0.25098033     0.06700
C763        C  0.34344607  0.00178908  0.23249002     0.26300
C764        C  0.31945065  0.00283016  0.23602132    -0.11400
C765        C  0.30989196  0.99648023  0.25786229    -0.25400
C766        C  0.32463602  0.98891028  0.27616721     0.37100
C767        C  0.38394321  0.99452293  0.24805966     0.06700
F768        F  0.35216255  0.00843606  0.21127000    -0.19100
H769        H  0.30824631  0.00857888  0.22173314     0.16500
F770        F  0.31590853  0.98316495  0.29763498    -0.22900
H771        H  0.35960914  0.98219470  0.28714163     0.18300
C772        C  0.39870990  0.00539536  0.26479943     0.26300
C773        C  0.42282395  0.00483481  0.26231628    -0.11400
C774        C  0.43270616  0.99348714  0.24312631    -0.25400
C775        C  0.41803407  0.98280362  0.22625506     0.37200
C776        C  0.39386195  0.98332909  0.22873003    -0.27000
F777        F  0.38980185  0.01690966  0.28336584    -0.19200
H778        H  0.43388253  0.01323022  0.27543421     0.16500
F779        F  0.42713628  0.97186413  0.20744083    -0.22900
H780        H  0.38287616  0.97469732  0.21571807     0.18300
C781        C  0.69202042  0.98077266  0.23631438    -0.26900
C782        C  0.67917300  0.98710573  0.25615959     0.06700
C783        C  0.69117579  0.99143971  0.27760780     0.26300
C784        C  0.71546335  0.98979356  0.27888053    -0.11400
C785        C  0.72812517  0.98351523  0.25894989    -0.25400
C786        C  0.71618656  0.97900490  0.23765934     0.37100
C787        C  0.65338709  0.98905911  0.25413688     0.06700
F788        F  0.67951969  0.99777166  0.29716690    -0.19100
H789        H  0.72445808  0.99331422  0.29540937     0.16500
F790        F  0.72806310  0.97338015  0.21801438    -0.22900
H791        H  0.68327830  0.97704280  0.21969333     0.18300
C792        C  0.64313773  0.00149122  0.23529854     0.26300
C793        C  0.61890770  0.00225763  0.23278034    -0.11400
C794        C  0.60436051  0.99069929  0.24895038    -0.25400
C795        C  0.61453192  0.97866988  0.26804308     0.37200
C796        C  0.63877128  0.97784080  0.27054983    -0.27000
F797        F  0.65657026  0.01316418  0.21945773    -0.19200
H798        H  0.61143186  0.01179313  0.21808716     0.16500
F799        F  0.60096211  0.96763399  0.28420697    -0.22900
H800        H  0.64613553  0.96801343  0.28509379     0.18300
C801        C  0.52085779  0.82026943  0.27006148    -0.26900
C802        C  0.50895028  0.83204414  0.25186222     0.06700
C803        C  0.49482534  0.81889486  0.23618362     0.26300
C804        C  0.49317069  0.79470045  0.23849134    -0.11400
C805        C  0.50507771  0.78309849  0.25670243    -0.25400
C806        C  0.51863090  0.79618176  0.27273567     0.37100
C807        C  0.51139677  0.85785049  0.24941752     0.06700
F808        F  0.48212712  0.82938874  0.21896724    -0.19100
H809        H  0.48251628  0.78494322  0.22604043     0.16500
F810        F  0.52926851  0.78572756  0.29136143    -0.22900
H811        H  0.53207760  0.82968976  0.28226376     0.18300
C812        C  0.51156405  0.87231209  0.26945337     0.26300
C813        C  0.51426586  0.89637266  0.26697273    -0.11400
C814        C  0.51613281  0.90665581  0.24454470    -0.25400
C815        C  0.51577102  0.89247251  0.22449318     0.37200
C816        C  0.51378518  0.86830088  0.22695498    -0.27000
F817        F  0.50822156  0.86337529  0.29142462    -0.19200
H818        H  0.51414046  0.90715604  0.28256902     0.16500
F819        F  0.51708899  0.90204360  0.20255916    -0.22900
H820        H  0.51419664  0.85776118  0.21122145     0.18300
C821        C  0.19921148  0.41815781  0.22674949    -0.26900
C822        C  0.21128347  0.40560978  0.24414022     0.06700
C823        C  0.22035300  0.41708946  0.26407908     0.26300
C824        C  0.21729309  0.44079193  0.26665459    -0.11400
C825        C  0.20525828  0.45343517  0.24937113    -0.25400
C826        C  0.19594726  0.44199051  0.22946307     0.37100
C827        C  0.21513121  0.38063218  0.24160864     0.06700
F828        F  0.23256028  0.40538333  0.28085171    -0.19100
H829        H  0.22451604  0.44938333  0.28211705     0.16500
F830        F  0.18311169  0.45363684  0.21317191    -0.22900
H831        H  0.19204393  0.40941574  0.21135949     0.18300
C832        C  0.20703805  0.36504840  0.25892923     0.26300
C833        C  0.21457401  0.34222399  0.25926362    -0.11400
C834        C  0.23044622  0.33464384  0.24243862    -0.25400
C835        C  0.23731880  0.34993528  0.22413755     0.37200
C836        C  0.22959273  0.37277163  0.22375347    -0.27000
F837        F  0.19267577  0.37225336  0.27614302    -0.19200
H838        H  0.20877929  0.33079550  0.27337377     0.16500
F839        F  0.25194204  0.34308756  0.20700124    -0.22900
H840        H  0.23589489  0.38467110  0.21027042     0.18300
C841        C  0.22179232  0.48022046  0.12485517    -0.26900
C842        C  0.23847168  0.48631937  0.14216430     0.06700
C843        C  0.26159198  0.49056044  0.13516020     0.26300
C844        C  0.26748986  0.48973624  0.11117267    -0.11400
C845        C  0.25050925  0.48441032  0.09395081    -0.25400
C846        C  0.22770812  0.47930883  0.10101306     0.37100
C847        C  0.23115271  0.48927648  0.16711256     0.06700
F848        F  0.27821570  0.49648351  0.15132392    -0.19100
H849        H  0.28516501  0.49369031  0.10594929     0.16500
F850        F  0.21101896  0.47406468  0.08468244    -0.22900
H851        H  0.20399553  0.47647408  0.12980544     0.18300
C852        C  0.21186133  0.50293256  0.17228650     0.26300
C853        C  0.20429945  0.50506838  0.19552374    -0.11400
C854        C  0.21583468  0.49384954  0.21418208    -0.25400
C855        C  0.23554552  0.48070760  0.20921222     0.37200
C856        C  0.24302914  0.47836333  0.18585161    -0.27000
F857        F  0.20046797  0.51451862  0.15485509    -0.19200
H858        H  0.18920392  0.51536538  0.19901034     0.16500
F859        F  0.24772594  0.47043345  0.22693903    -0.22900
H860        H  0.25794725  0.46780656  0.18236550     0.18300
C861        C  0.26776977  0.25844431  0.08685916    -0.26900
C862        C  0.28524941  0.25007936  0.10200550     0.06700
C863        C  0.30473752  0.23958343  0.09231837     0.26300
C864        C  0.30629011  0.23683698  0.06792407    -0.11400
C865        C  0.28851020  0.24451920  0.05279237    -0.25400
C866        C  0.26925864  0.25555651  0.06239962     0.37100
C867        C  0.28267386  0.25148573  0.12789522     0.06700
F868        F  0.32214963  0.23179466  0.10648125    -0.19100
H869        H  0.32117121  0.22815401  0.06081683     0.16500
F870        F  0.25119800  0.26205210  0.04840411    -0.22900
H871        H  0.25250831  0.26634856  0.09408271     0.18300
C872        C  0.27959331  0.27294664  0.13883500     0.26300
C873        C  0.27758149  0.27410521  0.16334946    -0.11400
C874        C  0.27836454  0.25387474  0.17740116    -0.25400
C875        C  0.28111440  0.23231750  0.16635789     0.37200
C876        C  0.28334530  0.23121866  0.14180941    -0.27000
F877        F  0.27920907  0.29284882  0.12587186    -0.19200
H878        H  0.27548377  0.29093313  0.17137679     0.16500
F879        F  0.28244121  0.21243604  0.17926943    -0.22900
H880        H  0.28560915  0.21450222  0.13359974     0.18300
C881        C  0.25131565  0.36064788  0.01413540    -0.26900
C882        C  0.27290819  0.35099207  0.00893476     0.06700
C883        C  0.29164248  0.36600238  0.00322738     0.26300
C884        C  0.28888812  0.39008186  0.00325146    -0.11400
C885        C  0.26744864  0.39964163  0.00884314    -0.25400
C886        C  0.24858896  0.38476976  0.01413152     0.37100
C887        C  0.27574189  0.32535101  0.00926648     0.06700
F888        F  0.31245103  0.35737906  0.99700509    -0.19100
H889        H  0.30347300  0.40134841  0.99877366     0.16500
F890        F  0.22754207  0.39362401  0.01909030    -0.22900
H891        H  0.23660936  0.34947775  0.01843755     0.18300
C892        C  0.29408590  0.31513277  0.02200207     0.26300
C893        C  0.29699510  0.29108121  0.02160394    -0.11400
C894        C  0.28154438  0.27665389  0.00882721    -0.25400
C895        C  0.26275752  0.28675888  0.99671735     0.37200
C896        C  0.25998272  0.31086931  0.99688075    -0.27000
F897        F  0.30890903  0.32835227  0.03527487    -0.19200
H898        H  0.31141516  0.28364126  0.03126007     0.16500
F899        F  0.24673054  0.27329050  0.98528908    -0.22900
H900        H  0.24555340  0.31827689  0.98719285     0.18300
C901        C  0.23683020  0.47872753  0.83201507    -0.26900
C902        C  0.25587677  0.48817844  0.84470094     0.06700
C903        C  0.27411282  0.49900207  0.83214658     0.26300
C904        C  0.27337634  0.50004725  0.80749476    -0.11400
C905        C  0.25453229  0.49038892  0.79492129    -0.25400
C906        C  0.23612791  0.47985855  0.80729058     0.37100
C907        C  0.25688848  0.48658995  0.87090473     0.06700
F908        F  0.29239812  0.50906655  0.84373701    -0.19100
H909        H  0.28751607  0.50844924  0.79809456     0.16500
F910        F  0.21729123  0.47124033  0.79544351    -0.22900
H911        H  0.22259339  0.47029926  0.84124986     0.18300
C912        C  0.23802602  0.49327297  0.88476277     0.26300
C913        C  0.23965351  0.49235451  0.90943372    -0.11400
C914        C  0.26000775  0.48474765  0.92065914    -0.25400
C915        C  0.27876891  0.47789757  0.90691878     0.37200
C916        C  0.27714400  0.47871830  0.88226825    -0.27000
F917        F  0.21832862  0.50137937  0.87451703    -0.19200
H918        H  0.22509575  0.49778037  0.91986791     0.16500
F919        F  0.29871851  0.47069703  0.91737808    -0.22900
H920        H  0.29177419  0.47320274  0.87200052     0.18300
C921        C  0.25713098  0.65850586  0.01979936    -0.26900
C922        C  0.24218786  0.64423591  0.00612918     0.06700
C923        C  0.22355605  0.65462508  0.99389308     0.26300
C924        C  0.22013671  0.67855174  0.99540308    -0.11400
C925        C  0.23531118  0.69274645  0.00875681    -0.25400
C926        C  0.25396507  0.68249300  0.02086954     0.37100
C927        C  0.24603010  0.61867808  0.00504153     0.06700
F928        F  0.20897637  0.64184694  0.97992594    -0.19100
H929        H  0.20567658  0.68613017  0.98592381     0.16500
F930        F  0.26968447  0.69571587  0.03298821    -0.22900
H931        H  0.27136413  0.65109228  0.02976226     0.18300
C932        C  0.26858039  0.60973435  0.00301991     0.26300
C933        C  0.27205576  0.58573875  0.00361795    -0.11400
C934        C  0.25313694  0.57018845  0.00548142    -0.25400
C935        C  0.23059531  0.57894898  0.00649863     0.37200
C936        C  0.22713313  0.60291277  0.00667086    -0.27000
F937        F  0.28725920  0.62412848  0.00005122    -0.19200
H938        H  0.28952194  0.57922605  0.00246056     0.16500
F939        F  0.21195718  0.56423575  0.00771098    -0.22900
H940        H  0.20963078  0.60909658  0.00856604     0.18300
C941        C  0.12595679  0.24894242  0.73608538    -0.26900
C942        C  0.11991230  0.22770523  0.72545770     0.06700
C943        C  0.13763500  0.21290809  0.71842263     0.26300
C944        C  0.16089961  0.21884963  0.72294600    -0.11400
C945        C  0.16696202  0.23962378  0.73459758    -0.25400
C946        C  0.14918813  0.25488627  0.74069738     0.37100
C947        C  0.09512074  0.22051162  0.72363741     0.06700
F948        F  0.13244269  0.19257139  0.70743628    -0.19100
H949        H  0.17414746  0.20682274  0.71787219     0.16500
F950        F  0.15410200  0.27536300  0.75153366    -0.22900
H951        H  0.11257458  0.26059042  0.74169280     0.18300
C952        C  0.08747117  0.19926266  0.73342433     0.26300
C953        C  0.06378387  0.19401209  0.73479321    -0.11400
C954        C  0.04720164  0.21001197  0.72706434    -0.25400
C955        C  0.05485078  0.23096217  0.71651330     0.37200
C956        C  0.07861772  0.23599102  0.71465196    -0.27000
F957        F  0.10274881  0.18444018  0.74355637    -0.19200
H958        H  0.05834969  0.17791996  0.74325447     0.16500
F959        F  0.03963305  0.24758749  0.71010364    -0.22900
H960        H  0.08415348  0.25256420  0.70728680     0.18300
C961        C  0.21789152  0.26488242  0.62765456    -0.26900
C962        C  0.23176276  0.25718958  0.60917139     0.06700
C963        C  0.25114917  0.24356364  0.61457755     0.26300
C964        C  0.25713133  0.23873558  0.63812661    -0.11400
C965        C  0.24368757  0.24700747  0.65673251    -0.25400
C966        C  0.22355143  0.25960996  0.65121157     0.37100
C967        C  0.22759857  0.26548990  0.58463354     0.06700
F968        F  0.26509052  0.23605831  0.59714719    -0.19100
H969        H  0.27260597  0.22889498  0.64184392     0.16500
F970        F  0.21007027  0.26802320  0.66857555    -0.22900
H971        H  0.20295844  0.27548354  0.62382937     0.18300
C972        C  0.22425772  0.24985449  0.56588476     0.26300
C973        C  0.22402160  0.25794426  0.54247393    -0.11400
C974        C  0.22736926  0.28165718  0.53742304    -0.25400
C975        C  0.22954205  0.29737060  0.55621465     0.37200
C976        C  0.22936473  0.28935020  0.57960839    -0.27000
F977        F  0.22230947  0.22670309  0.57017714    -0.19200
H978        H  0.22304465  0.24546954  0.52829973     0.16500
F979        F  0.23325060  0.32032934  0.55187430    -0.22900
H980        H  0.23208277  0.30165880  0.59379601     0.18300
C981        C  0.27306657  0.36165673  0.75761211    -0.26900
C982        C  0.25453829  0.37484700  0.76589438     0.06700
C983        C  0.23512005  0.36314384  0.77536669     0.26300
C984        C  0.23397305  0.33894482  0.77596252    -0.11400
C985        C  0.25218232  0.32555859  0.76731074    -0.25400
C986        C  0.27197659  0.33722557  0.75832343     0.37100
C987        C  0.25455829  0.40063725  0.76350497     0.06700
F988        F  0.21720612  0.37516364  0.78428976    -0.19100
H989        H  0.21868008  0.33066521  0.78345175     0.16500
F990        F  0.28994251  0.32513227  0.74964315    -0.22900
H991        H  0.28812795  0.37027291  0.75002521     0.18300
C992        C  0.27304150  0.41473008  0.77205343     0.26300
C993        C  0.27209889  0.43904177  0.76996880    -0.11400
C994        C  0.25295905  0.44954626  0.75895876    -0.25400
C995        C  0.23462999  0.43546691  0.75038366     0.37200
C996        C  0.23539608  0.41135690  0.75275070    -0.27000
F997        F  0.29185712  0.40503655  0.78253535    -0.19200
H998        H  0.28658264  0.44962772  0.77629425     0.16500
F999        F  0.21595151  0.44510103  0.73956856    -0.22900
H1000       H  0.22106282  0.40094887  0.74579598     0.18300
C1001       C  0.29331636  0.26458512  0.92871503    -0.26900
C1002       C  0.27642762  0.25207662  0.91568899     0.06700
C1003       C  0.26222716  0.23563045  0.92728312     0.26300
C1004       C  0.26491345  0.23174327  0.95145769    -0.11400
C1005       C  0.28162977  0.24426583  0.96458499    -0.25400
C1006       C  0.29586249  0.26080578  0.95311527     0.37100
C1007       C  0.27324872  0.25607297  0.89005776     0.06700
F1008       F  0.24615961  0.22285778  0.91505724    -0.19100
H1009       H  0.25406228  0.21867565  0.95997676     0.16500
F1010       F  0.31276289  0.27252129  0.96524782    -0.22900
H1011       H  0.30446183  0.27723731  0.91997343     0.18300
C1012       C  0.25165611  0.26314319  0.88124952     0.26300
C1013       C  0.24757809  0.26437571  0.85697379    -0.11400
C1014       C  0.26489493  0.25846965  0.84081705    -0.25400
C1015       C  0.28693631  0.25226323  0.84972279     0.37200
C1016       C  0.29101603  0.25115073  0.87418836    -0.27000
F1017       F  0.23431967  0.26846925  0.89621830    -0.19200
H1018       H  0.23052361  0.26951346  0.85089768     0.16500
F1019       F  0.30433395  0.24666007  0.83495657    -0.22900
H1020       H  0.30777821  0.24563339  0.88076761     0.18300
C1021       C  0.43168505  0.24082972  0.77464584    -0.26900
C1022       C  0.41461571  0.24072549  0.79218399     0.06700
C1023       C  0.42161264  0.24126337  0.81608202     0.26300
C1024       C  0.44520211  0.24339319  0.82214174    -0.11400
C1025       C  0.46212510  0.24445744  0.80451772    -0.25400
C1026       C  0.45522378  0.24271657  0.78070166     0.37100
C1027       C  0.38972448  0.24125288  0.78509248     0.06700
F1028       F  0.40564894  0.23996751  0.83351097    -0.19100
H1029       H  0.45026697  0.24474983  0.84057730     0.16500
F1030       F  0.47107122  0.24470569  0.76320597    -0.22900
H1031       H  0.42671188  0.24054965  0.75613152     0.18300
C1032       C  0.37504938  0.25864905  0.79330772     0.26300
C1033       C  0.35225871  0.26030166  0.78456519    -0.11400
C1034       C  0.34369390  0.24475240  0.76737667    -0.25400
C1035       C  0.35829164  0.22688768  0.75977378     0.37200
C1036       C  0.38100204  0.22532826  0.76847885    -0.27000
F1037       F  0.38308813  0.27476857  0.80889541    -0.19200
H1038       H  0.34151352  0.27413896  0.79083788     0.16500
F1039       F  0.35079760  0.21086519  0.74380828    -0.22900
H1040       H  0.39195122  0.21172577  0.76201909     0.18300
C1041       C  0.51308370  0.18820155  0.76338816    -0.26900
C1042       C  0.50467974  0.17024554  0.77822327     0.06700
C1043       C  0.49675771  0.17602519  0.80086268     0.26300
C1044       C  0.49746334  0.19900709  0.80842328    -0.11400
C1045       C  0.50590982  0.21682193  0.79371716    -0.25400
C1046       C  0.51364880  0.21134171  0.77103847     0.37100
C1047       C  0.50453346  0.14553293  0.77050247     0.06700
F1048       F  0.48776073  0.15954491  0.81556360    -0.19100
H1049       H  0.49123266  0.20305416  0.82587028     0.16500
F1050       F  0.52112179  0.22838723  0.75616287    -0.22900
H1051       H  0.51943542  0.18429956  0.74596239     0.18300
C1052       C  0.49630909  0.13881635  0.74793408     0.26300
C1053       C  0.49576097  0.11531733  0.74152271    -0.11400
C1054       C  0.50291065  0.09815819  0.75764178    -0.25400
C1055       C  0.51113953  0.10484807  0.78004897     0.37200
C1056       C  0.51225676  0.12824221  0.78623059    -0.27000
F1057       F  0.48811499  0.15480323  0.73237817    -0.19200
H1058       H  0.48941839  0.11042767  0.72413590     0.16500
F1059       F  0.51813697  0.08862757  0.79597555    -0.22900
H1060       H  0.51918159  0.13283960  0.80347144     0.18300
C1061       C  0.27436031  0.08740161  0.76027502    -0.26900
C1062       C  0.26157948  0.09883819  0.74250941     0.06700
C1063       C  0.24710100  0.08569148  0.72742622     0.26300
C1064       C  0.24495489  0.06166262  0.73044320    -0.11400
C1065       C  0.25713471  0.05014171  0.74857342    -0.25400
C1066       C  0.27201676  0.06322966  0.76347591     0.37100
C1067       C  0.26274895  0.12448295  0.73986188     0.06700
F1068       F  0.23485117  0.09618740  0.70986295    -0.19100
H1069       H  0.23331347  0.05200207  0.71881451     0.16500
F1070       F  0.28321821  0.05293036  0.78185366    -0.22900
H1071       H  0.28552681  0.09731508  0.77214502     0.18300
C1072       C  0.24324384  0.13794555  0.74451255     0.26300
C1073       C  0.24382866  0.16195192  0.74035266    -0.11400
C1074       C  0.26383314  0.17308583  0.73129561    -0.25400
C1075       C  0.28350754  0.15945613  0.72696117     0.37200
C1076       C  0.28289240  0.13546710  0.73130689    -0.27000
F1077       F  0.22360728  0.12782735  0.75315451    -0.19200
H1078       H  0.22850110  0.17180128  0.74415195     0.16500
F1079       F  0.30341574  0.16916386  0.71848337    -0.22900
H1080       H  0.29804329  0.12533565  0.72752609     0.18300
C1081       C  0.37774053  0.00813893  0.73035209    -0.26900
C1082       C  0.36664861  0.01108487  0.75212102     0.06700
C1083       C  0.38042991  0.01441428  0.77260799     0.26300
C1084       C  0.40468386  0.01485185  0.77119626    -0.11400
C1085       C  0.41561246  0.01204486  0.74942066    -0.25400
C1086       C  0.40198190  0.00872737  0.72896115     0.37100
C1087       C  0.34081904  0.01055824  0.75325565     0.06700
F1088       F  0.37049258  0.01778366  0.79390647    -0.19100
H1089       H  0.41501774  0.01745782  0.78710087     0.16500
F1090       F  0.41216975  0.00597027  0.70768838    -0.22900
H1091       H  0.36760444  0.00515091  0.71439265     0.18300
C1092       C  0.32735345  0.02319758  0.73690195     0.26300
C1093       C  0.30309059  0.02189709  0.73755122    -0.11400
C1094       C  0.29170066  0.00849441  0.75484617    -0.25400
C1095       C  0.30514155  0.99640470  0.77164459     0.37200
C1096       C  0.32940338  0.99718433  0.77060545    -0.27000
F1097       F  0.33763830  0.03717701  0.72053916    -0.19200
H1098       H  0.29315920  0.03131670  0.72441700     0.16500
F1099       F  0.29486245  0.98427287  0.78942475    -0.22900
H1100       H  0.33928637  0.98721107  0.78336178     0.18300
C1101       C  0.50746786  0.89108300  0.72295184    -0.26900
C1102       C  0.50175842  0.87855782  0.74355745     0.06700
C1103       C  0.49574717  0.89085585  0.76394623     0.26300
C1104       C  0.49536453  0.91516971  0.76350610    -0.11400
C1105       C  0.50083546  0.92754295  0.74276329    -0.25400
C1106       C  0.50687973  0.91529203  0.72247471     0.37100
C1107       C  0.50177261  0.85276105  0.74321360     0.06700
F1108       F  0.48966980  0.87940165  0.78404815    -0.19100
H1109       H  0.49069844  0.92440823  0.77930685     0.16500
F1110       F  0.51237281  0.92681968  0.70224726    -0.22900
H1111       H  0.51249513  0.88205856  0.70714640     0.18300
C1112       C  0.49049669  0.84069154  0.72473043     0.26300
C1113       C  0.49151800  0.81658112  0.72356493    -0.11400
C1114       C  0.50340309  0.80383649  0.74093550    -0.25400
C1115       C  0.51434511  0.81572991  0.75972726     0.37200
C1116       C  0.51359149  0.84003222  0.76077470    -0.27000
F1117       F  0.47809919  0.85219301  0.70796431    -0.19200
H1118       H  0.48289318  0.80771696  0.70902162     0.16500
F1119       F  0.52522651  0.80387288  0.77728795    -0.22900
H1120       H  0.52244254  0.84893114  0.77516290     0.18300
C1121       C  0.67197205  0.00040727  0.71610872    -0.26900
C1122       C  0.66175175  0.01134293  0.73544566     0.06700
C1123       C  0.67625825  0.02102487  0.75310257     0.26300
C1124       C  0.70039757  0.02015035  0.75114695    -0.11400
C1125       C  0.71059604  0.00963058  0.73164163    -0.25400
C1126       C  0.69617472  0.99953688  0.71418329     0.37100
C1127       C  0.63605605  0.01282393  0.73697004     0.06700
F1128       F  0.66712481  0.03198921  0.77188882    -0.19100
H1129       H  0.71124838  0.02780021  0.76487357     0.16500
F1130       F  0.70548465  0.98944012  0.69498918    -0.22900
H1131       H  0.66116485  0.99257999  0.70243524     0.18300
C1132       C  0.62281143  0.02111326  0.71772811     0.26300
C1133       C  0.59858418  0.02185602  0.71907759    -0.11400
C1134       C  0.58716783  0.01463948  0.73969101    -0.25400
C1135       C  0.60038752  0.00706660  0.75921372     0.37200
C1136       C  0.62458602  0.00598252  0.75775454    -0.27000
F1137       F  0.63333767  0.02888635  0.69777623    -0.19200
H1138       H  0.58865280  0.02801025  0.70400082     0.16500
F1139       F  0.58978551  0.00024895  0.77947390    -0.22900
H1140       H  0.63436767  0.99948363  0.77277647     0.18300
C1141       C  0.72023855  0.13966842  0.73160383    -0.26900
C1142       C  0.74029981  0.12740025  0.73747177     0.06700
C1143       C  0.76121650  0.13993686  0.74153569     0.26300
C1144       C  0.76192871  0.16420500  0.73947516    -0.11400
C1145       C  0.74191251  0.17648052  0.73306137    -0.25400
C1146       C  0.72092743  0.16384322  0.72944042     0.37100
C1147       C  0.73955530  0.10156917  0.73786757     0.06700
F1148       F  0.78124480  0.12868901  0.74633749    -0.19100
H1149       H  0.77835493  0.17331437  0.74218098     0.16500
F1150       F  0.70094524  0.17474346  0.72365466    -0.22900
H1151       H  0.70393526  0.13044699  0.72850718     0.18300
C1152       C  0.74966931  0.08900176  0.75660171     0.26300
C1153       C  0.75167478  0.06493194  0.75512756    -0.11400
C1154       C  0.74304682  0.05289772  0.73535391    -0.25400
C1155       C  0.73122504  0.06507824  0.71750926     0.37200
C1156       C  0.72958880  0.08926709  0.71874498    -0.27000
F1157       F  0.75797273  0.10001543  0.77614516    -0.19200
H1158       H  0.76065441  0.05569280  0.76912723     0.16500
F1159       F  0.72283687  0.05385398  0.69811630    -0.22900
H1160       H  0.72153633  0.09851011  0.70417597     0.18300
C1161       C  0.77691723  0.20233722  0.63082093    -0.26900
C1162       C  0.77139083  0.21676725  0.61152023     0.06700
C1163       C  0.76629618  0.24019742  0.61575918     0.26300
C1164       C  0.76452097  0.24827761  0.63889635    -0.11400
C1165       C  0.76851168  0.23338148  0.65811111    -0.25400
C1166       C  0.77562650  0.21059413  0.65395620     0.37100
C1167       C  0.76768104  0.20659668  0.58766712     0.06700
F1168       F  0.76188135  0.25496943  0.59753742    -0.19100
H1169       H  0.75891950  0.26585095  0.64184150     0.16500
F1170       F  0.77897790  0.19564287  0.67227917    -0.22900
H1171       H  0.78058740  0.18419514  0.62811125     0.18300
C1172       C  0.78364990  0.19136016  0.57765496     0.26300
C1173       C  0.77877650  0.18095374  0.55576143    -0.11400
C1174       C  0.75795085  0.18557434  0.54363930    -0.25400
C1175       C  0.74211338  0.20082930  0.55360025     0.37200
C1176       C  0.74691361  0.21110397  0.57536615    -0.27000
F1177       F  0.80403431  0.18679886  0.58885166    -0.19200
H1178       H  0.79123649  0.16934451  0.54824343     0.16500
F1179       F  0.72216449  0.20625676  0.54197501    -0.22900
H1180       H  0.73410666  0.22237153  0.58282096     0.18300
C1181       C  0.58022459  0.27162757  0.77739603    -0.26900
C1182       C  0.59410228  0.25245113  0.78236870     0.06700
C1183       C  0.58437336  0.23332096  0.79467467     0.26300
C1184       C  0.56116997  0.23364692  0.80200178    -0.11400
C1185       C  0.54750896  0.25308275  0.79727957    -0.25400
C1186       C  0.55721728  0.27198451  0.78473379     0.37100
C1187       C  0.61864690  0.25289314  0.77465792     0.06700
F1188       F  0.59753944  0.21477719  0.80040211    -0.19100
H1189       H  0.55410908  0.21908618  0.81195930     0.16500
F1190       F  0.54433798  0.29085133  0.77943099    -0.22900
H1191       H  0.58724370  0.28639853  0.76771428     0.18300
C1192       C  0.62734937  0.23498467  0.76082001     0.26300
C1193       C  0.65017286  0.23619616  0.75274071    -0.11400
C1194       C  0.66487676  0.25525263  0.75827232    -0.25400
C1195       C  0.65611716  0.27321773  0.77214248     0.37200
C1196       C  0.63320546  0.27201987  0.78013084    -0.27000
F1197       F  0.61356898  0.21666385  0.75443724    -0.19200
H1198       H  0.65631888  0.22208579  0.74208840     0.16500
F1199       F  0.66948683  0.29207844  0.77774834    -0.22900
H1200       H  0.62677541  0.28608933  0.79066492     0.18300
C1201       C  0.87296999  0.22863680  0.71798286    -0.26900
C1202       C  0.88931026  0.23338646  0.73602110     0.06700
C1203       C  0.88171058  0.24327109  0.75721054     0.26300
C1204       C  0.85838138  0.24850224  0.76006569    -0.11400
C1205       C  0.84202759  0.24341737  0.74221587    -0.25400
C1206       C  0.84947267  0.23339369  0.72109588     0.37100
C1207       C  0.91417630  0.22795911  0.73296871     0.06700
F1208       F  0.89667083  0.24716088  0.77553772    -0.19100
H1209       H  0.85296517  0.25594700  0.77659270     0.16500
F1210       F  0.83415458  0.22870391  0.70328210    -0.22900
H1211       H  0.87842038  0.22138763  0.70139039     0.18300
C1212       C  0.92106311  0.20621260  0.72449394     0.26300
C1213       C  0.94461643  0.20064241  0.72418202    -0.11400
C1214       C  0.96142915  0.21653778  0.73248866    -0.25400
C1215       C  0.95466040  0.23830266  0.74050791     0.37200
C1216       C  0.93131917  0.24416507  0.74014360    -0.27000
F1217       F  0.90504380  0.18982156  0.71801734    -0.19200
H1218       H  0.94965380  0.18353859  0.71858575     0.16500
F1219       F  0.97059867  0.25351309  0.74965167    -0.22900
H1220       H  0.92655801  0.26114384  0.74633512     0.18300
C1221       C  0.77725120  0.06096628  0.28420990    -0.26900
C1222       C  0.75989924  0.07189844  0.27096050     0.06700
C1223       C  0.74422624  0.05845055  0.25735564     0.26300
C1224       C  0.74669038  0.03452988  0.25614605    -0.11400
C1225       C  0.76436919  0.02349001  0.26895953    -0.25400
C1226       C  0.77940970  0.03694856  0.28341866     0.37100
C1227       C  0.75969447  0.09734787  0.26924111     0.06700
F1228       F  0.72762617  0.06857379  0.24376748    -0.19100
H1229       H  0.73560152  0.02505953  0.24393669     0.16500
F1230       F  0.79664886  0.02703147  0.29629389    -0.22900
H1231       H  0.78946098  0.07112703  0.29476401     0.18300
C1232       C  0.73893579  0.10932026  0.27204066     0.26300
C1233       C  0.73802546  0.13274182  0.26622037    -0.11400
C1234       C  0.75789742  0.14458920  0.25818634    -0.25400
C1235       C  0.77910086  0.13318396  0.25702644     0.37200
C1236       C  0.77993210  0.10954713  0.26240390    -0.27000
F1237       F  0.71943044  0.09821705  0.27976210    -0.19200
H1238       H  0.72165996  0.14159656  0.26754107     0.16500
F1239       F  0.79846006  0.14444998  0.24914852    -0.22900
H1240       H  0.79606602  0.10051709  0.26008796     0.18300
C1241       C  0.76374727  0.20691489  0.42662266    -0.26900
C1242       C  0.75717249  0.19132739  0.40870475     0.06700
C1243       C  0.75010623  0.16860956  0.41507205     0.26300
C1244       C  0.74932329  0.16197022  0.43893738    -0.11400
C1245       C  0.75541120  0.17784237  0.45680240    -0.25400
C1246       C  0.76235079  0.20051258  0.45035144     0.37100
C1247       C  0.75700325  0.19940870  0.38368516     0.06700
F1248       F  0.74290863  0.15319821  0.39837900    -0.19100
H1249       H  0.74337296  0.14459020  0.44352134     0.16500
F1250       F  0.76608776  0.21712053  0.46687444    -0.22900
H1251       H  0.76940455  0.22443958  0.42227206     0.18300
C1252       C  0.74768253  0.22108495  0.37755685     0.26300
C1253       C  0.74880889  0.22932835  0.35435543    -0.11400
C1254       C  0.75877583  0.21603709  0.33654464    -0.25400
C1255       C  0.76749690  0.19403636  0.34248019     0.37200
C1256       C  0.76675972  0.18594832  0.36586879    -0.27000
F1257       F  0.73705517  0.23419928  0.39391627    -0.19200
H1258       H  0.74150462  0.24608912  0.35027162     0.16500
F1259       F  0.77728480  0.18057219  0.32587812    -0.22900
H1260       H  0.77426789  0.16933003  0.37013369     0.18300
C1261       C  0.63620001  0.24402498  0.24647369    -0.26900
C1262       C  0.62365436  0.22309382  0.24934886     0.06700
C1263       C  0.63520710  0.20201857  0.24718901     0.26300
C1264       C  0.65900917  0.20197442  0.24256253    -0.11400
C1265       C  0.67171983  0.22294208  0.23969249    -0.25400
C1266       C  0.65992441  0.24404822  0.24155347     0.37100
C1267       C  0.59845337  0.22362312  0.25411060     0.06700
F1268       F  0.62354367  0.18149798  0.24987104    -0.19100
H1269       H  0.66744794  0.18542096  0.24110119     0.16500
F1270       F  0.67107113  0.26474216  0.23813665    -0.22900
H1271       H  0.62745400  0.26044949  0.24763943     0.18300
C1272       C  0.59017842  0.23649009  0.27312807     0.26300
C1273       C  0.56636747  0.23949632  0.27581652    -0.11400
C1274       C  0.55039157  0.22971422  0.25967017    -0.25400
C1275       C  0.55856260  0.21594545  0.24122156     0.37200
C1276       C  0.58245832  0.21284597  0.23858401    -0.27000
F1277       F  0.60519326  0.24669247  0.28871806    -0.19200
H1278       H  0.56038375  0.25024194  0.29005879     0.16500
F1279       F  0.54372007  0.20716882  0.22462797    -0.22900
H1280       H  0.58854337  0.20309950  0.22365526     0.18300
C1281       C  0.86477331  0.26143762  0.26746608    -0.26900
C1282       C  0.87535772  0.24407345  0.25441555     0.06700
C1283       C  0.86156952  0.22572358  0.24540856     0.26300
C1284       C  0.83752396  0.22499403  0.24927172    -0.11400
C1285       C  0.82674796  0.24248934  0.26228780    -0.25400
C1286       C  0.84084646  0.26067781  0.27153942     0.37100
C1287       C  0.90063431  0.24587057  0.24966094     0.06700
F1288       F  0.87124444  0.20888520  0.23230887    -0.19100
H1289       H  0.82731717  0.21079029  0.24185546     0.16500
F1290       F  0.83165152  0.27787700  0.28451683    -0.22900
H1291       H  0.87515171  0.27569394  0.27455233     0.18300
C1292       C  0.90942250  0.26395166  0.23539210     0.26300
C1293       C  0.93325053  0.26590664  0.23106869    -0.11400
C1294       C  0.94889607  0.25015175  0.24118328    -0.25400
C1295       C  0.94014306  0.23214793  0.25569673     0.37200
C1296       C  0.91616323  0.22999856  0.25977130    -0.27000
F1297       F  0.89484121  0.27941136  0.22517709    -0.19200
H1298       H  0.93954452  0.27973234  0.21961632     0.16500
F1299       F  0.95457621  0.21612377  0.26512507    -0.22900
H1300       H  0.90968134  0.21596564  0.27084581     0.18300
C1301       C  0.74755721  0.40882511  0.22483568    -0.26900
C1302       C  0.76313537  0.39073411  0.22860562     0.06700
C1303       C  0.78552685  0.39564764  0.23760774     0.26300
C1304       C  0.79161220  0.41813970  0.24423976    -0.11400
C1305       C  0.77559031  0.43594306  0.24178552    -0.25400
C1306       C  0.75372687  0.43140889  0.23138927     0.37100
C1307       C  0.75503549  0.36649585  0.22709056     0.06700
F1308       F  0.80077469  0.37840222  0.24193543    -0.19100
H1309       H  0.80848025  0.42150437  0.25231629     0.16500
F1310       F  0.73770226  0.44830466  0.22944899    -0.22900
H1311       H  0.73020140  0.40519041  0.21808169     0.18300
C1312       C  0.73704923  0.35858352  0.24188693     0.26300
C1313       C  0.73312775  0.33485466  0.24510215    -0.11400
C1314       C  0.74715557  0.31899271  0.23371544    -0.25400
C1315       C  0.76394124  0.32677560  0.21762264     0.37200
C1316       C  0.76778719  0.35049944  0.21424417    -0.27000
F1317       F  0.72496001  0.37368411  0.25507810    -0.19200
H1318       H  0.72037917  0.32889285  0.25781724     0.16500
F1319       F  0.77761638  0.31145126  0.20648966    -0.22900
H1320       H  0.78171177  0.35640087  0.20284335     0.18300
C1321       C  0.78085416  0.49463082  0.12660119    -0.26900
C1322       C  0.76214114  0.49054447  0.14193881     0.06700
C1323       C  0.73955998  0.48862195  0.13217383     0.26300
C1324       C  0.73592372  0.49099273  0.10771256    -0.11400
C1325       C  0.75474298  0.49457590  0.09243105    -0.25400
C1326       C  0.77727671  0.49630250  0.10214441     0.37100
C1327       C  0.76645560  0.48795022  0.16790502     0.06700
F1328       F  0.72113044  0.48348778  0.14612992    -0.19100
H1329       H  0.71845231  0.48933061  0.10055734     0.16500
F1330       F  0.79588138  0.49941437  0.08788659    -0.22900
H1331       H  0.79837727  0.49644277  0.13357237     0.18300
C1332       C  0.78427556  0.47365557  0.17650768     0.26300
C1333       C  0.78847600  0.47150557  0.20078363    -0.11400
C1334       C  0.77491332  0.48320226  0.21717071    -0.25400
C1335       C  0.75703454  0.49746495  0.20872884     0.37200
C1336       C  0.75295868  0.49987356  0.18432135    -0.27000
F1337       F  0.79724484  0.46116163  0.16149515    -0.19200
H1338       H  0.80227740  0.46039463  0.20692298     0.16500
F1339       F  0.74318906  0.50857976  0.22403590    -0.22900
H1340       H  0.73926081  0.51113542  0.17822981     0.18300
C1341       C  0.71730220  0.26421120  0.07227156    -0.26900
C1342       C  0.69910942  0.26391776  0.08854628     0.06700
C1343       C  0.67598735  0.26377513  0.08023966     0.26300
C1344       C  0.67122904  0.26216028  0.05607732    -0.11400
C1345       C  0.68943440  0.26127332  0.03997639    -0.25400
C1346       C  0.71253236  0.26287939  0.04809935     0.37100
C1347       C  0.70444213  0.25995859  0.11378362     0.06700
F1348       F  0.65805809  0.26424888  0.09557219    -0.19100
H1349       H  0.65336098  0.26110109  0.04992905     0.16500
F1350       F  0.73043616  0.26137141  0.03282278    -0.22900
H1351       H  0.73520112  0.26397392  0.07835734     0.18300
C1352       C  0.69501224  0.24029323  0.12515964     0.26300
C1353       C  0.70244221  0.23433991  0.14778160    -0.11400
C1354       C  0.71952736  0.24770810  0.15961430    -0.25400
C1355       C  0.72822054  0.26809074  0.14872360     0.37200
C1356       C  0.72086778  0.27397920  0.12580410    -0.27000
F1357       F  0.67967648  0.22591407  0.11384538    -0.19200
H1358       H  0.69508949  0.21880223  0.15583947     0.16500
F1359       F  0.74440200  0.28176236  0.15971825    -0.22900
H1360       H  0.72835443  0.28916607  0.11720308     0.18300
C1361       C  0.69903874  0.28682039  0.91784180    -0.26900
C1362       C  0.71307701  0.27021596  0.90732573     0.06700
C1363       C  0.71913373  0.25019956  0.92004303     0.26300
C1364       C  0.71084580  0.24657676  0.94274379    -0.11400
C1365       C  0.69669804  0.26296160  0.95327287    -0.25400
C1366       C  0.69098845  0.28331980  0.94087783     0.37100
C1367       C  0.72118012  0.27311024  0.88292717     0.06700
F1368       F  0.73253786  0.23381121  0.91019669    -0.19100
H1369       H  0.71544988  0.23086646  0.95218258     0.16500
F1370       F  0.67722339  0.29937268  0.95074616    -0.22900
H1371       H  0.69432723  0.30236371  0.90819109     0.18300
C1372       C  0.70539231  0.27270125  0.86386885     0.26300
C1373       C  0.71352791  0.27158648  0.84072926    -0.11400
C1374       C  0.73752659  0.27093373  0.83631743    -0.25400
C1375       C  0.75324274  0.27228355  0.85559912     0.37200
C1376       C  0.74504859  0.27334298  0.87860192    -0.27000
F1377       F  0.68216461  0.27208362  0.86771347    -0.19200
H1378       H  0.70100804  0.27074294  0.82631766     0.16500
F1379       F  0.77655282  0.27165832  0.85247467    -0.22900
H1380       H  0.75737926  0.27354874  0.89321003     0.18300
C1381       C  0.73088131  0.32313702  0.98939150    -0.26900
C1382       C  0.71787747  0.33961908  0.00148120     0.06700
C1383       C  0.69738293  0.33237627  0.01285242     0.26300
C1384       C  0.68956587  0.30944593  0.01121979    -0.11400
C1385       C  0.70214001  0.29309714  0.99867003    -0.25400
C1386       C  0.72323391  0.29994205  0.98821285     0.37100
C1387       C  0.72511832  0.36443394  0.00178757     0.06700
F1388       F  0.68494048  0.34745845  0.02570998    -0.19100
H1389       H  0.67341259  0.30440343  0.01958758     0.16500
F1390       F  0.73653555  0.28423758  0.97720926    -0.22900
H1391       H  0.74677452  0.32828291  0.98058421     0.18300
C1392       C  0.74801332  0.37139313  0.00773489     0.26300
C1393       C  0.75402221  0.39500743  0.00893348    -0.11400
C1394       C  0.73731061  0.41183097  0.00418661    -0.25400
C1395       C  0.71460224  0.40497130  0.99801473     0.37200
C1396       C  0.70862705  0.38148161  0.99666096    -0.27000
F1397       F  0.76433698  0.35544835  0.01305958    -0.19200
H1398       H  0.77162460  0.40022066  0.01366293     0.16500
F1399       F  0.69820268  0.42107512  0.99347489    -0.22900
H1400       H  0.69101481  0.37657729  0.99164202     0.18300
C1401       C  0.77112718  0.42030429  0.75081445    -0.26900
C1402       C  0.75449563  0.40744259  0.76364414     0.06700
C1403       C  0.73675438  0.41943871  0.77510339     0.26300
C1404       C  0.73513139  0.44360981  0.77263105    -0.11400
C1405       C  0.75110635  0.45610741  0.75873044    -0.25400
C1406       C  0.76942276  0.44434031  0.74829098     0.37100
C1407       C  0.75585185  0.38163354  0.76441693     0.06700
F1408       F  0.72092299  0.40783146  0.78852231    -0.19100
H1409       H  0.72081531  0.45242470  0.78068356     0.16500
F1410       F  0.78533352  0.45608851  0.73507235    -0.22900
H1411       H  0.78503622  0.41159693  0.74195523     0.18300
C1412       C  0.73647191  0.36729664  0.75897267     0.26300
C1413       C  0.73852356  0.34307601  0.75863707    -0.11400
C1414       C  0.75993483  0.33254168  0.76356027    -0.25400
C1415       C  0.77933676  0.34704879  0.76885537     0.37200
C1416       C  0.77721853  0.37117978  0.76923711    -0.27000
F1417       F  0.71568730  0.37666756  0.75326616    -0.19200
H1418       H  0.72322746  0.33255861  0.75460429     0.16500
F1419       F  0.80044451  0.33807100  0.77394676    -0.22900
H1420       H  0.79240938  0.38179520  0.77345078     0.18300
C1421       C  0.73168412  0.50735431  0.83084854    -0.26900
C1422       C  0.75184999  0.49871241  0.84162759     0.06700
C1423       C  0.76965807  0.49037424  0.82735503     0.26300
C1424       C  0.76694423  0.49023592  0.80272388    -0.11400
C1425       C  0.74661176  0.49861346  0.79202842    -0.25400
C1426       C  0.72906486  0.50737299  0.80630404     0.37100
C1427       C  0.75315476  0.49706177  0.86773538     0.06700
F1428       F  0.78926266  0.48166873  0.83722810    -0.19100
H1429       H  0.78070698  0.48365028  0.79191945     0.16500
F1430       F  0.70909938  0.51532854  0.79652610    -0.22900
H1431       H  0.71778387  0.51384571  0.84155255     0.18300
C1432       C  0.77109967  0.50805961  0.88077928     0.26300
C1433       C  0.77102206  0.50716890  0.90554240    -0.11400
C1434       C  0.75306104  0.49537909  0.91757345    -0.25400
C1435       C  0.73536171  0.48416419  0.90446119     0.37200
C1436       C  0.73545963  0.48501999  0.87981213    -0.27000
F1437       F  0.78810789  0.52038909  0.86964728    -0.19200
H1438       H  0.78472458  0.51602598  0.91540002     0.16500
F1439       F  0.71765718  0.47286087  0.91554425    -0.22900
H1440       H  0.72151102  0.47643344  0.87005733     0.18300
C1441       C  0.74798910  0.66967373  0.99728969    -0.26900
C1442       C  0.76474817  0.65414515  0.00562833     0.06700
C1443       C  0.78562169  0.66284616  0.01548742     0.26300
C1444       C  0.78965912  0.68671693  0.01688154    -0.11400
C1445       C  0.77312198  0.70224551  0.00824299    -0.25400
C1446       C  0.75217155  0.69362367  0.99847799     0.37100
C1447       C  0.76062999  0.62886865  0.00405958     0.06700
F1448       F  0.80192537  0.64822417  0.02410869    -0.19100
H1449       H  0.80581541  0.69321479  0.02451421     0.16500
F1450       F  0.73561481  0.70838229  0.99074238    -0.22900
H1451       H  0.73178795  0.66321707  0.98970645     0.18300
C1452       C  0.74133865  0.61821237  0.01494735     0.26300
C1453       C  0.73867614  0.59405819  0.01477612    -0.11400
C1454       C  0.75513059  0.58035567  0.00365631    -0.25400
C1455       C  0.77410966  0.59104788  0.99231239     0.37200
C1456       C  0.77679180  0.61513367  0.99252609    -0.27000
F1457       F  0.72561552  0.63108318  0.02647736    -0.19200
H1458       H  0.72395497  0.58597031  0.02353519     0.16500
F1459       F  0.79020426  0.57811685  0.98138443    -0.22900
H1460       H  0.79165390  0.62311392  0.98390779     0.18300
C1461       C  0.78669193  0.70882691  0.14349101    -0.26900
C1462       C  0.76937314  0.71650555  0.12778239     0.06700
C1463       C  0.74739835  0.72180869  0.13674573     0.26300
C1464       C  0.74304802  0.71966795  0.16087337     0.03800
C1465       C  0.76050268  0.71247995  0.17668231    -0.25400
C1466       C  0.78244226  0.70696927  0.16769990     0.37100
C1467       C  0.77444128  0.71975298  0.10229228     0.06700
F1468       F  0.73028978  0.72985348  0.12235280    -0.19100
H1469       H  0.72602821  0.72405762  0.16723007     0.16500
F1470       F  0.79973892  0.69944642  0.18216302    -0.22900
H1471       H  0.80358604  0.70418621  0.13700056     0.18300
C1472       C  0.79474713  0.73160133  0.09494681     0.26300
C1473       C  0.79815604  0.73658965  0.07103245    -0.11400
C1474       C  0.78135509  0.73015277  0.05404665    -0.25400
C1475       C  0.76125755  0.71797119  0.06132941     0.37200
C1476       C  0.75816071  0.71239690  0.08512883    -0.27000
F1477       F  0.81064453  0.73962202  0.11093952    -0.19200
H1478       H  0.81360414  0.74626100  0.06583999     0.16500
F1479       F  0.74367995  0.71309721  0.04591230    -0.22900
H1480       H  0.74250391  0.70305538  0.09025511     0.18300
C1481       C  0.58130362  0.76193995  0.24346958    -0.26900
C1482       C  0.59486081  0.75013822  0.26034605     0.06700
C1483       C  0.58378884  0.73790253  0.27867637     0.26300
C1484       C  0.55961639  0.73690513  0.27967400    -0.11400
C1485       C  0.54595600  0.74801024  0.26244483    -0.25400
C1486       C  0.55698242  0.76090360  0.24445104     0.37100
C1487       C  0.62031399  0.74852827  0.25767614     0.06700
F1488       F  0.59632343  0.72555817  0.29468242    -0.19100
H1489       H  0.55147195  0.72662801  0.29349155     0.16500
F1490       F  0.54439836  0.77103174  0.22692792    -0.22900
H1491       H  0.58958214  0.77126961  0.22907461     0.18300
C1492       C  0.62945135  0.73852882  0.23734585     0.26300
C1493       C  0.65320143  0.73449895  0.23592274    -0.11400
C1494       C  0.66841536  0.74034309  0.25470264    -0.25400
C1495       C  0.65929541  0.75079883  0.27491108     0.37200
C1496       C  0.63542565  0.75479033  0.27633060    -0.27000
F1497       F  0.61524439  0.73149539  0.21936416    -0.19200
H1498       H  0.65961534  0.72637334  0.22014764     0.16500
F1499       F  0.67317802  0.75623043  0.29368134    -0.22900
H1500       H  0.62860572  0.76230302  0.29224478     0.18300
C1501       C  0.79448294  0.60943680  0.25706171    -0.26900
C1502       C  0.77776686  0.59336862  0.24898370     0.06700
C1503       C  0.75696140  0.60090277  0.23890323     0.26300
C1504       C  0.75269425  0.62445828  0.23721002    -0.11400
C1505       C  0.76902814  0.64087908  0.24581856    -0.25400
C1506       C  0.79022465  0.63316254  0.25551184     0.37100
C1507       C  0.78114927  0.56860878  0.25237809     0.06700
F1508       F  0.74053735  0.58539521  0.23126870    -0.19100
H1509       H  0.73624441  0.62973779  0.22965476     0.16500
F1510       F  0.80660474  0.64834004  0.26386444    -0.22900
H1511       H  0.81055926  0.60355324  0.26499043     0.18300
C1512       C  0.79229296  0.55563537  0.23520170     0.26300
C1513       C  0.79331259  0.53158747  0.23760913    -0.11400
C1514       C  0.78281084  0.52041130  0.25693836    -0.25400
C1515       C  0.77203391  0.53365095  0.27434729     0.37200
C1516       C  0.77122807  0.55763146  0.27199584    -0.27000
F1517       F  0.80164806  0.56621224  0.21594558    -0.19200
H1518       H  0.80222270  0.52174555  0.22438374     0.16500
F1519       F  0.76155502  0.52337598  0.29318564    -0.22900
H1520       H  0.76235327  0.56763885  0.28515427     0.18300
C1521       C  0.74005029  0.85572179  0.26830985    -0.26900
C1522       C  0.73985565  0.86682061  0.24608882     0.06700
C1523       C  0.74058180  0.85320855  0.22552181     0.26300
C1524       C  0.74339239  0.82925100  0.22735850    -0.11400
C1525       C  0.74481352  0.81862445  0.24960849    -0.25400
C1526       C  0.74226148  0.83176574  0.27006032     0.37100
C1527       C  0.74255171  0.89240524  0.24493323     0.06700
F1528       F  0.73963034  0.86314172  0.20372344    -0.19100
H1529       H  0.74541323  0.81912320  0.21148588     0.16500
F1530       F  0.74387505  0.82166260  0.29175504    -0.22900
H1531       H  0.74014928  0.86568167  0.28445369     0.18300
C1532       C  0.73091988  0.90668138  0.26084895     0.26300
C1533       C  0.73771616  0.92989003  0.26341010    -0.11400
C1534       C  0.75564838  0.93939071  0.24963571    -0.25400
C1535       C  0.76586326  0.92571268  0.23231407     0.37200
C1536       C  0.75956806  0.90237610  0.23021997    -0.27000
F1537       F  0.71371597  0.89795445  0.27469304    -0.19200
H1538       H  0.72974371  0.94002467  0.27702749     0.16500
F1539       F  0.78259921  0.93467901  0.21801896    -0.22900
H1540       H  0.76908951  0.89184580  0.21804044     0.18300
C1541       C  0.25728397  0.73561521  0.09009004    -0.26900
C1542       C  0.24183925  0.72238669  0.10393575     0.06700
C1543       C  0.22397405  0.70954173  0.09243137     0.26300
C1544       C  0.22123854  0.71077461  0.06762746    -0.11400
C1545       C  0.23617547  0.72493881  0.05402042    -0.25400
C1546       C  0.25441994  0.73703981  0.06555872     0.37100
C1547       C  0.24429527  0.72310534  0.13026134     0.06700
F1548       F  0.20904775  0.69609391  0.10519068    -0.19100
H1549       H  0.20684663  0.70158834  0.05920109     0.16500
F1550       F  0.26901257  0.75109907  0.05307276    -0.22900
H1551       H  0.27110910  0.74571354  0.09843491     0.18300
C1552       C  0.26566944  0.71820630  0.14125170     0.26300
C1553       C  0.26862148  0.72073143  0.16568987    -0.11400
C1554       C  0.25038824  0.72822481  0.18005197    -0.25400
C1555       C  0.22895212  0.73326125  0.16899486     0.37200
C1556       C  0.22599282  0.73062727  0.14440725    -0.27000
F1557       F  0.28370192  0.71059717  0.12835419    -0.19200
H1558       H  0.28529143  0.71638624  0.17339623     0.16500
F1559       F  0.21085388  0.74079718  0.18182016    -0.22900
H1560       H  0.20949057  0.73494376  0.13630439     0.18300
C1561       C  0.42680525  0.77395650  0.27403935    -0.26900
C1562       C  0.41114918  0.76197709  0.25909343     0.06700
C1563       C  0.41977732  0.74628092  0.24258482     0.26300
C1564       C  0.44350417  0.74204863  0.24174033    -0.11400
C1565       C  0.45911724  0.75339705  0.25718132    -0.25400
C1566       C  0.45066784  0.76975055  0.27311110     0.37100
C1567       C  0.38576393  0.76474313  0.26136256     0.06700
F1568       F  0.40512654  0.73398669  0.22822321    -0.19100
H1569       H  0.44965446  0.72917790  0.22955445     0.16500
F1570       F  0.46515996  0.78044131  0.28883485    -0.22900
H1571       H  0.42045180  0.78611797  0.28683661     0.18300
C1572       C  0.37447927  0.75973277  0.28280711     0.26300
C1573       C  0.35013778  0.75866170  0.28359936    -0.11400
C1574       C  0.33690972  0.76230663  0.26297127    -0.25400
C1575       C  0.34823397  0.76889513  0.24202202     0.37200
C1576       C  0.37241157  0.77011236  0.24127754    -0.27000
F1577       F  0.38695184  0.75402815  0.30242786    -0.19200
H1578       H  0.34172818  0.75332583  0.29982676     0.16500
F1579       F  0.33586520  0.77316549  0.22194262    -0.22900
H1580       H  0.38078078  0.77429982  0.22470050     0.18300
C1581       C  0.24779293  0.61693820  0.24731179    -0.26900
C1582       C  0.22672116  0.61118661  0.23584363     0.06700
C1583       C  0.21233152  0.62910005  0.22772621     0.26300
C1584       C  0.21869917  0.65225153  0.23166778    -0.11400
C1585       C  0.23968307  0.65789778  0.24330243    -0.25400
C1586       C  0.25438126  0.64006218  0.25079378     0.37100
C1587       C  0.21900096  0.58658924  0.23467049     0.06700
F1588       F  0.19219989  0.62423305  0.21590870    -0.19100
H1589       H  0.20738481  0.66580709  0.22530938     0.16500
F1590       F  0.27470825  0.64494844  0.26225548    -0.22900
H1591       H  0.25888166  0.60348908  0.25427994     0.18300
C1592       C  0.23447635  0.56905354  0.22852178     0.26300
C1593       C  0.22823097  0.54571925  0.23180739    -0.11400
C1594       C  0.20641086  0.53958234  0.24095308    -0.25400
C1595       C  0.19037392  0.55703825  0.24542889     0.37200
C1596       C  0.19668907  0.58030476  0.24243370    -0.27000
F1597       F  0.25594787  0.57449844  0.22025996    -0.19200
H1598       H  0.24096194  0.53258184  0.22851056     0.16500
F1599       F  0.16892445  0.55162675  0.25377000    -0.22900
H1600       H  0.18453446  0.59342534  0.24752582     0.18300
C1601       C  0.27256517  0.92094163  0.29606751    -0.26900
C1602       C  0.27955441  0.90792283  0.27667721     0.06700
C1603       C  0.28730449  0.91927765  0.25612773     0.26300
C1604       C  0.28640306  0.94343905  0.25446453    -0.11400
C1605       C  0.27751444  0.95624773  0.27316527    -0.25400
C1606       C  0.27143445  0.94499847  0.29431801     0.37100
C1607       C  0.27338603  0.88314927  0.27604004     0.06700
F1608       F  0.29338781  0.90690698  0.23691726    -0.19100
H1609       H  0.29083009  0.95194372  0.23794594     0.16500
F1610       F  0.26303796  0.95717270  0.31269595    -0.22900
H1611       H  0.26631819  0.91230381  0.31189516     0.18300
C1612       C  0.29018189  0.86588687  0.27609171     0.26300
C1613       C  0.28325163  0.84249665  0.27500791    -0.11400
C1614       C  0.25949948  0.83617457  0.27364929    -0.25400
C1615       C  0.24283623  0.85382260  0.27355581     0.37200
C1616       C  0.24982696  0.87697019  0.27480179    -0.27000
F1617       F  0.31311255  0.87164920  0.27743705    -0.19200
H1618       H  0.29646929  0.82937755  0.27518509     0.16500
F1619       F  0.21970662  0.84893810  0.27224577    -0.22900
H1620       H  0.23674740  0.89025481  0.27457396     0.18300
C1621       C  0.23995142  0.76553191  0.43071282    -0.26900
C1622       C  0.23755650  0.74649363  0.41542379     0.06700
C1623       C  0.23616857  0.72398191  0.42523272     0.26300
C1624       C  0.23784982  0.72067980  0.44976057    -0.11400
C1625       C  0.24094401  0.73969285  0.46487696    -0.25400
C1626       C  0.24193037  0.76217909  0.45515921     0.37100
C1627       C  0.23785848  0.75032171  0.38937051     0.06700
F1628       F  0.23373089  0.70516287  0.41108148    -0.19100
H1629       H  0.23787715  0.70319111  0.45690190     0.16500
F1630       F  0.24632348  0.78078307  0.46921209    -0.22900
H1631       H  0.24150711  0.78298774  0.42361291     0.18300
C1632       C  0.22327008  0.76666816  0.37862223     0.26300
C1633       C  0.22452682  0.77107783  0.35432989    -0.11400
C1634       C  0.24038422  0.75937453  0.34006109    -0.25400
C1635       C  0.25478742  0.74276133  0.35081099     0.37200
C1636       C  0.25351070  0.73836061  0.37519272    -0.27000
F1637       F  0.20750340  0.77814536  0.39156528    -0.19200
H1638       H  0.21298534  0.78379154  0.34669006     0.16500
F1639       F  0.26980805  0.73044857  0.33778416    -0.22900
H1640       H  0.26504565  0.72578937  0.38309182     0.18300
C1641       C  0.17510607  0.72076464  0.52714754    -0.26900
C1642       C  0.16204075  0.73713475  0.51446146     0.06700
C1643       C  0.17393053  0.75336320  0.50002548     0.26300
C1644       C  0.19822322  0.75335842  0.49868409    -0.11400
C1645       C  0.21125391  0.73700290  0.51134773    -0.25400
C1646       C  0.19936878  0.72053878  0.52548285     0.37100
C1647       C  0.13616497  0.73733071  0.51632480     0.06700
F1648       F  0.16203572  0.76892832  0.48672790    -0.19100
H1649       H  0.20683109  0.76629602  0.48783195     0.16500
F1650       F  0.21117539  0.70378503  0.53720841    -0.22900
H1651       H  0.16652418  0.70813218  0.53847537     0.18300
C1652       C  0.12262599  0.71675246  0.51432636     0.26300
C1653       C  0.09830594  0.71751176  0.51499438    -0.11400
C1654       C  0.08702936  0.73872725  0.51756108    -0.25400
C1655       C  0.10045602  0.75913858  0.52020865     0.37200
C1656       C  0.12473467  0.75840316  0.51970958    -0.27000
F1657       F  0.13279845  0.69604195  0.51071850    -0.19200
H1658       H  0.08818412  0.70161884  0.51284377     0.16500
F1659       F  0.09000517  0.77986485  0.52275875    -0.22900
H1660       H  0.13464923  0.77442037  0.52181486     0.18300
C1661       C  0.07841918  0.70493203  0.25118750    -0.26900
C1662       C  0.09247619  0.69990747  0.27081115     0.06700
C1663       C  0.08267285  0.68879943  0.29065336     0.26300
C1664       C  0.05926432  0.68171797  0.29017509    -0.11400
C1665       C  0.04543959  0.68615738  0.27013611    -0.25400
C1666       C  0.05508660  0.69832345  0.25087688     0.37100
C1667       C  0.11708362  0.70728546  0.27038423     0.06700
F1668       F  0.09587686  0.68420718  0.31008318    -0.19100
H1669       H  0.05210920  0.67230550  0.30512166     0.16500
F1670       F  0.04187955  0.70388140  0.23170543    -0.22900
H1671       H  0.08555647  0.71414294  0.23609044     0.18300
C1672       C  0.13166573  0.70000768  0.25222531     0.26300
C1673       C  0.15406598  0.70949835  0.25012329    -0.11400
C1674       C  0.16218677  0.72650675  0.26600327    -0.25400
C1675       C  0.14762482  0.73320925  0.28462886     0.37200
C1676       C  0.12536247  0.72357916  0.28673665    -0.27000
F1677       F  0.12409167  0.68390641  0.23638577    -0.19200
H1678       H  0.16489995  0.70377481  0.23586092     0.16500
F1679       F  0.15455520  0.74942627  0.30063718    -0.22900
H1680       H  0.11421722  0.72951487  0.30066216     0.18300
C1681       C  0.88061367  0.71645407  0.28758230    -0.26900
C1682       C  0.88980349  0.69945550  0.27295852     0.06700
C1683       C  0.87609402  0.69057718  0.25423339     0.26300
C1684       C  0.85375334  0.69882321  0.25015878    -0.11400
C1685       C  0.84472873  0.71624367  0.26445284    -0.25400
C1686       C  0.85840993  0.72492923  0.28335575     0.37100
C1687       C  0.91404414  0.69194154  0.27651840     0.06700
F1688       F  0.88458752  0.67458811  0.23927563    -0.19100
H1689       H  0.84368147  0.69184487  0.23548021     0.16500
F1690       F  0.85041029  0.74153061  0.29790760    -0.22900
H1691       H  0.89072508  0.72329166  0.30230104     0.18300
C1692       C  0.93221830  0.70847036  0.27895350     0.26300
C1693       C  0.95523999  0.70140748  0.27963155    -0.11400
C1694       C  0.96051937  0.67789911  0.27741784    -0.25400
C1695       C  0.94245115  0.66127239  0.27606527     0.37200
C1696       C  0.91936697  0.66825693  0.27594462    -0.27000
F1697       F  0.92788170  0.73154334  0.27875915    -0.19200
H1698       H  0.96899828  0.71448517  0.28006379     0.16500
F1699       F  0.94718514  0.63840817  0.27388795    -0.22900
H1700       H  0.90564573  0.65521218  0.27454074     0.18300
C1701       C  0.01122943  0.69961398  0.39660159    -0.26900
C1702       C  0.00653714  0.71544605  0.37821581     0.06700
C1703       C  0.00112789  0.73844217  0.38410223     0.26300
C1704       C  0.00067342  0.74530113  0.40784748    -0.11400
C1705       C  0.00465489  0.72917335  0.42613765    -0.25400
C1706       C  0.01003887  0.70626549  0.42022918     0.37100
C1707       C  0.00595326  0.70714554  0.35329489     0.06700
F1708       F  0.99529251  0.75400699  0.36704391    -0.19100
H1709       H  0.99673185  0.76310095  0.41201365     0.16500
F1710       F  0.01420798  0.69029229  0.43743133    -0.22900
H1711       H  0.01561367  0.68187516  0.39265161     0.18300
C1712       C  0.01706692  0.71941950  0.33481340     0.26300
C1713       C  0.01622188  0.71081978  0.31163905    -0.11400
C1714       C  0.00471597  0.68967709  0.30660332    -0.25400
C1715       C  0.99393862  0.67736158  0.32512181     0.37200
C1716       C  0.99442613  0.68607659  0.34805245    -0.27000
F1717       F  0.02933643  0.73928151  0.33922143    -0.19200
H1718       H  0.02458460  0.72061936  0.29763553     0.16500
F1719       F  0.98331147  0.65652674  0.32109841    -0.22900
H1720       H  0.98571754  0.67623943  0.36183167     0.18300
C1721       C  0.97838010  0.72569493  0.68637376    -0.26900
C1722       C  0.99161522  0.74336175  0.67532139     0.06700
C1723       C  0.00410999  0.75925312  0.68963154     0.26300
C1724       C  0.00362590  0.75719018  0.71429079    -0.11400
C1725       C  0.99080410  0.73926405  0.72527381    -0.25400
C1726       C  0.97806191  0.72354504  0.71105592     0.37100
C1727       C  0.99295084  0.74468156  0.64900791     0.06700
F1728       F  0.01751638  0.77627838  0.67980247    -0.19100
H1729       H  0.01349369  0.76951323  0.72491585     0.16500
F1730       F  0.96609833  0.70553597  0.72095782    -0.22900
H1731       H  0.96841468  0.71335744  0.67584797     0.18300
C1732       C  0.99739635  0.72474389  0.63562030     0.26300
C1733       C  0.99918264  0.72621886  0.61100352    -0.11400
C1734       C  0.99664593  0.74752266  0.59921674    -0.25400
C1735       C  0.99214679  0.76745662  0.61242622     0.37200
C1736       C  0.99025611  0.76600453  0.63707181    -0.27000
F1737       F  0.00065919  0.70391159  0.64636067    -0.19200
H1738       H  0.00263168  0.71069863  0.60105012     0.16500
F1739       F  0.98955729  0.78827480  0.60144289    -0.22900
H1740       H  0.98653390  0.78155854  0.64684417     0.18300
C1741       C  0.77847052  0.74883373  0.41851846    -0.26900
C1742       C  0.76635970  0.76341209  0.40288444     0.06700
C1743       C  0.75249357  0.78089851  0.41194191     0.26300
C1744       C  0.75039333  0.78348825  0.43623089    -0.11400
C1745       C  0.76180705  0.76855024  0.45204782    -0.25400
C1746       C  0.77624102  0.75134257  0.44303504     0.37100
C1747       C  0.76769501  0.76054487  0.37706580     0.06700
F1748       F  0.74005417  0.79475930  0.39722193    -0.19100
H1749       H  0.73893201  0.79663274  0.44274695     0.16500
F1750       F  0.78683631  0.73600101  0.45768217    -0.22900
H1751       H  0.78921990  0.73524727  0.41170929     0.18300
C1752       C  0.77688209  0.77861983  0.36313813     0.26300
C1753       C  0.77590148  0.77723738  0.33858604    -0.11400
C1754       C  0.76547695  0.75793485  0.32737156    -0.25400
C1755       C  0.75652287  0.73960464  0.34134388     0.37200
C1756       C  0.75777284  0.74090506  0.36606966    -0.27000
F1757       F  0.78655370  0.79778069  0.37336502    -0.19200
H1758       H  0.78301797  0.79154586  0.32828774     0.16500
F1759       F  0.74695047  0.72037093  0.33117575    -0.22900
H1760       H  0.75046831  0.72689623  0.37664966     0.18300
C1761       C  0.82811347  0.74733563  0.51269035    -0.26900
C1762       C  0.84223706  0.76383636  0.50103506     0.06700
C1763       C  0.83150060  0.78154966  0.48779162     0.26300
C1764       C  0.80718747  0.78263099  0.48645451    -0.11400
C1765       C  0.79318735  0.76611065  0.49820238    -0.25400
C1766       C  0.80391366  0.74836491  0.51124309     0.37100
C1767       C  0.86798108  0.76160494  0.50215267     0.06700
F1768       F  0.84443850  0.79731724  0.47550624    -0.19100
H1769       H  0.79921766  0.79633676  0.47620496     0.16500
F1770       F  0.79096732  0.73149547  0.52189634    -0.22900
H1771       H  0.83587985  0.73346455  0.52288867     0.18300
C1772       C  0.88275475  0.78052233  0.50807427     0.26300
C1773       C  0.90685585  0.77762773  0.50974006    -0.11400
C1774       C  0.91658635  0.75587911  0.50565597    -0.25400
C1775       C  0.90190477  0.73701116  0.49987191     0.37200
C1776       C  0.87789411  0.73988638  0.49809243    -0.27000
F1777       F  0.87388580  0.80155460  0.51307737    -0.19200
H1778       H  0.91796565  0.79229104  0.51444222     0.16500
F1779       F  0.91084519  0.71573792  0.49618300    -0.22900
H1780       H  0.86696514  0.72505293  0.49351789     0.18300
C1781       C  0.12146086  0.73637632  0.73093579    -0.26900
C1782       C  0.10985781  0.73233193  0.75220299     0.06700
C1783       C  0.12302003  0.72764177  0.77277568     0.26300
C1784       C  0.14740942  0.72800997  0.77218453    -0.11400
C1785       C  0.15911772  0.73340449  0.75114873    -0.25400
C1786       C  0.14576661  0.73710485  0.73035453     0.37100
C1787       C  0.08423008  0.73482411  0.75321444     0.06700
F1788       F  0.11223999  0.72323459  0.79357037    -0.19100
H1789       H  0.15711137  0.72515964  0.78841816     0.16500
F1790       F  0.15614707  0.74209152  0.70946186    -0.22900
H1791       H  0.11166418  0.73999035  0.71491595     0.18300
C1792       C  0.07474770  0.75210106  0.76734179     0.26300
C1793       C  0.05070068  0.75374918  0.76954998    -0.11400
C1794       C  0.03551307  0.73830690  0.75769077    -0.25400
C1795       C  0.04489340  0.72167616  0.74259890     0.37200
C1796       C  0.06911316  0.72010697  0.74026335    -0.27000
F1797       F  0.08881476  0.76721998  0.77929683    -0.19200
H1798       H  0.04387547  0.76665446  0.78129574     0.16500
F1799       F  0.03083221  0.70593493  0.73151075    -0.22900
H1800       H  0.07610498  0.70679068  0.72912602     0.18300
C1801       C  0.22751072  0.56936274  0.77447063    -0.26900
C1802       C  0.24730061  0.58398663  0.77465830     0.06700
C1803       C  0.26932167  0.57412793  0.77218864     0.26300
C1804       C  0.27126484  0.55033981  0.76787771    -0.11400
C1805       C  0.25139043  0.53597363  0.76659021    -0.25400
C1806       C  0.22953598  0.54548054  0.77066575     0.37100
C1807       C  0.24492223  0.60958500  0.77573597     0.06700
F1808       F  0.28881668  0.58773780  0.77239712    -0.19100
H1809       H  0.28820355  0.54328315  0.76452665     0.16500
F1810       F  0.21007448  0.53185621  0.76968531    -0.22900
H1811       H  0.21044112  0.57657940  0.77661307     0.18300
C1812       C  0.23288437  0.62166903  0.75782988     0.26300
C1813       C  0.23279715  0.64604068  0.75758785    -0.11400
C1814       C  0.24488149  0.65871732  0.77507806    -0.25400
C1815       C  0.25591206  0.64650802  0.79361431     0.37200
C1816       C  0.25598467  0.62222674  0.79383203    -0.27000
F1817       F  0.22247457  0.60992384  0.73977391    -0.19200
H1818       H  0.22439000  0.65498566  0.74303217     0.16500
F1819       F  0.26704036  0.65810667  0.81134742    -0.22900
H1820       H  0.26512302  0.61324902  0.80790157     0.18300
C1821       C  0.41980533  0.76825032  0.72093178    -0.26900
C1822       C  0.41101172  0.77704831  0.74210033     0.06700
C1823       C  0.42699929  0.78499169  0.75948889     0.26300
C1824       C  0.45097883  0.78268459  0.75632778    -0.11400
C1825       C  0.45951100  0.77242495  0.73585681    -0.25400
C1826       C  0.44375804  0.76595648  0.71782475     0.37100
C1827       C  0.38547443  0.77548426  0.74683447     0.06700
F1828       F  0.41944953  0.79434460  0.77988475    -0.19100
H1829       H  0.46282341  0.78774952  0.77045783     0.16500
F1830       F  0.45153593  0.75663182  0.69750100    -0.22900
H1831       H  0.40809696  0.76187248  0.70725314     0.18300
C1832       C  0.36874582  0.78128169  0.72948177     0.26300
C1833       C  0.34497885  0.77703827  0.73345200    -0.11400
C1834       C  0.33726345  0.76699701  0.75480835    -0.25400
C1835       C  0.35398321  0.76220310  0.77250614     0.37200
C1836       C  0.37765592  0.76625026  0.76844389    -0.27000
F1837       F  0.37533788  0.79096306  0.70862041    -0.19200
H1838       H  0.33264313  0.78115623  0.71952913     0.16500
F1839       F  0.34762926  0.75312482  0.79370693    -0.22900
H1840       H  0.38999427  0.76127873  0.78205123     0.18300
C1841       C  0.26450536  0.74787732  0.64255731    -0.26900
C1842       C  0.24545733  0.75303374  0.62769949     0.06700
C1843       C  0.22558712  0.76238040  0.63791129     0.26300
C1844       C  0.22504341  0.76690686  0.66212835    -0.11400
C1845       C  0.24406217  0.76188108  0.67709881    -0.25400
C1846       C  0.26383917  0.75208583  0.66696499     0.37100
C1847       C  0.24607716  0.74787899  0.60186003     0.06700
F1848       F  0.20621680  0.76629937  0.62470084    -0.19100
H1849       H  0.20933823  0.77403964  0.66920646     0.16500
F1850       F  0.28247124  0.74635312  0.68053791    -0.22900
H1851       H  0.28001885  0.74056595  0.63523753     0.18300
C1852       C  0.23809903  0.76392343  0.58475905     0.26300
C1853       C  0.23846477  0.75854697  0.56065510    -0.11400
C1854       C  0.24754825  0.73752840  0.55304513    -0.25400
C1855       C  0.25586913  0.72166324  0.56995922     0.37200
C1856       C  0.25484041  0.72667332  0.59408284    -0.27000
F1857       F  0.23116878  0.78533107  0.59117076    -0.19200
H1858       H  0.23283759  0.77136194  0.54782502     0.16500
F1859       F  0.26523143  0.70138392  0.56309025    -0.22900
H1860       H  0.26104867  0.71396639  0.60672572     0.18300
C1861       C  0.22019810  0.72470416  0.87146922    -0.26900
C1862       C  0.23874835  0.72591014  0.88797454     0.06700
C1863       C  0.26134014  0.72933442  0.87903105     0.26300
C1864       C  0.26505745  0.73174091  0.85462135    -0.11400
C1865       C  0.24650304  0.73093245  0.83812583    -0.25400
C1866       C  0.22390375  0.72729059  0.84700931     0.37100
C1867       C  0.23439557  0.72469551  0.91428062     0.06700
F1868       F  0.27997484  0.73100694  0.89385031    -0.19100
H1869       H  0.28273034  0.73420433  0.84864484     0.16500
F1870       F  0.20531127  0.72570255  0.83212106    -0.22900
H1871       H  0.20264745  0.72147771  0.87746219     0.18300
C1872       C  0.21575970  0.73657389  0.92430264     0.26300
C1873       C  0.21286981  0.73710476  0.94886415    -0.11400
C1874       C  0.22858402  0.72629674  0.96447305    -0.25400
C1875       C  0.24690824  0.71386866  0.95459962     0.37200
C1876       C  0.24948270  0.71279515  0.92986604    -0.27000
F1877       F  0.20106921  0.74907150  0.91054398    -0.19200
H1878       H  0.19869821  0.74699516  0.95579643     0.16500
F1879       F  0.26333231  0.70416546  0.96868381    -0.22900
H1880       H  0.26377726  0.70310345  0.92295118     0.18300
C1881       C  0.27323304  0.92886956  0.73737795    -0.26900
C1882       C  0.26349394  0.91428307  0.75484933     0.06700
C1883       C  0.25422876  0.92450632  0.77510948     0.26300
C1884       C  0.25264099  0.94861180  0.77672809    -0.11400
C1885       C  0.26072497  0.96317242  0.75851546    -0.25400
C1886       C  0.27187163  0.95318294  0.73916893     0.37100
C1887       C  0.26012197  0.88882884  0.75088476     0.06700
F1888       F  0.24553922  0.91106448  0.79283873    -0.19100
H1889       H  0.24401592  0.95593783  0.79178254     0.16500
F1890       F  0.27953199  0.96675160  0.72107327    -0.22900
H1891       H  0.28047784  0.92143434  0.72163387     0.18300
C1892       C  0.23767206  0.87897652  0.75224572     0.26300
C1893       C  0.23407445  0.85507806  0.75014102    -0.11400
C1894       C  0.25265673  0.84004115  0.74642633    -0.25400
C1895       C  0.27514105  0.84998045  0.74391702     0.37200
C1896       C  0.27876007  0.87418431  0.74608327    -0.27000
F1897       F  0.21899821  0.89256968  0.75554143    -0.19200
H1898       H  0.21648171  0.84835361  0.75178641     0.16500
F1899       F  0.29357694  0.83645405  0.73937318    -0.22900
H1900       H  0.29616606  0.88142859  0.74452227     0.18300
C1901       C  0.63536167  0.77608360  0.73170777    -0.26900
C1902       C  0.62136848  0.77717822  0.75189164     0.06700
C1903       C  0.63235563  0.77796791  0.77421182     0.26300
C1904       C  0.65655240  0.77715494  0.77625097    -0.11400
C1905       C  0.67068632  0.77568338  0.75615820    -0.25400
C1906       C  0.65971984  0.77540396  0.73373074     0.37100
C1907       C  0.59544561  0.77583807  0.74985504     0.06700
F1908       F  0.61969742  0.77980509  0.79417951    -0.19100
H1909       H  0.66421229  0.77775495  0.79380417     0.16500
F1910       F  0.67241933  0.77461302  0.71372016    -0.22900
H1911       H  0.62739437  0.77524485  0.71430624     0.18300
C1912       C  0.58288246  0.78968518  0.73368538     0.26300
C1913       C  0.55859750  0.78700857  0.73138996    -0.11400
C1914       C  0.54650001  0.77039160  0.74502199    -0.25400
C1915       C  0.55901566  0.75704551  0.76154002     0.37200
C1916       C  0.58308324  0.75978166  0.76390459    -0.27000
F1917       F  0.59406938  0.80567297  0.72002228    -0.19200
H1918       H  0.54938820  0.79725538  0.71833438     0.16500
F1919       F  0.54796069  0.74088701  0.77513863    -0.22900
H1920       H  0.59220006  0.74868995  0.77628320     0.18300
C1921       C  0.74161168  0.62977313  0.78342978    -0.26900
C1922       C  0.73838095  0.61513800  0.76387095     0.06700
C1923       C  0.73878996  0.62477104  0.74104363     0.26300
C1924       C  0.74253841  0.64845490  0.73779282    -0.11400
C1925       C  0.74600597  0.66334438  0.75716132    -0.25400
C1926       C  0.74521156  0.65376801  0.78018160     0.37100
C1927       C  0.73559241  0.58967941  0.76656896     0.06700
F1928       F  0.73633337  0.61110262  0.72169309    -0.19100
H1929       H  0.74287506  0.65504789  0.71983495     0.16500
F1930       F  0.74806355  0.66740665  0.79948505    -0.22900
H1931       H  0.74131208  0.62260838  0.80116796     0.18300
C1932       C  0.75328101  0.57643989  0.77700191     0.26300
C1933       C  0.75335992  0.55233717  0.77394178    -0.11400
C1934       C  0.73585936  0.54127187  0.76043220    -0.25400
C1935       C  0.71725460  0.55431548  0.75166374     0.37200
C1936       C  0.71705323  0.57826982  0.75492257    -0.27000
F1937       F  0.77152830  0.58698370  0.78820720    -0.19200
H1938       H  0.76794063  0.54259315  0.78066312     0.16500
F1939       F  0.69984526  0.54403070  0.73892874    -0.22900
H1940       H  0.70315280  0.58817087  0.74697733     0.18300
C1941       C  0.74887090  0.75096203  0.57912704    -0.26900
C1942       C  0.75939584  0.77039510  0.58980532     0.06700
C1943       C  0.77124711  0.78688930  0.57575499     0.26300
C1944       C  0.77102869  0.78469236  0.55111019    -0.11400
C1945       C  0.75909938  0.76599866  0.54046667    -0.25400
C1946       C  0.74868981  0.74876328  0.55466098     0.37100
C1947       C  0.75755115  0.77315784  0.61558426     0.06700
F1948       F  0.78168932  0.80577185  0.58575225    -0.19100
H1949       H  0.77884837  0.79826178  0.54032323     0.16500
F1950       F  0.73743150  0.73030808  0.54470285    -0.22900
H1951       H  0.74022135  0.73778359  0.58977091     0.18300
C1952       C  0.73566209  0.77304241  0.62642675     0.26300
C1953       C  0.73405171  0.77246317  0.65105525    -0.11400
C1954       C  0.75422847  0.77149904  0.66505279    -0.25400
C1955       C  0.77610880  0.77282173  0.65417574     0.37200
C1956       C  0.77769382  0.77382669  0.62962580    -0.27000
F1957       F  0.71588082  0.77259770  0.61314904    -0.19200
H1958       H  0.71709214  0.77120602  0.65909651     0.16500
F1959       F  0.79598860  0.77211745  0.66727970    -0.22900
H1960       H  0.79465355  0.77385201  0.62154148     0.18300
C1961       C  0.73572400  0.73426900  0.88303955    -0.26900
C1962       C  0.75835369  0.73230736  0.89221848     0.06700
C1963       C  0.77714731  0.73181908  0.87658997     0.26300
C1964       C  0.77332146  0.73428846  0.85227952    -0.11400
C1965       C  0.75081102  0.73771021  0.84328506    -0.25400
C1966       C  0.73194477  0.73714973  0.85881319     0.37100
C1967       C  0.76237962  0.73321787  0.91804950     0.06700
F1968       F  0.79929943  0.73061151  0.88490619    -0.19100
H1969       H  0.78810712  0.73485350  0.84061241     0.16500
F1970       F  0.70989925  0.73978165  0.85062341    -0.22900
H1971       H  0.72100524  0.73435201  0.89478055     0.18300
C1972       C  0.75323622  0.75147716  0.93113875     0.26300
C1973       C  0.75849533  0.75358626  0.95509715    -0.11400
C1974       C  0.77296424  0.73764680  0.96653186    -0.25400
C1975       C  0.78177762  0.71904030  0.95363447     0.37200
C1976       C  0.77642094  0.71685694  0.92954647    -0.27000
F1977       F  0.74015668  0.76799436  0.92051742    -0.19200
H1978       H  0.75157385  0.76805117  0.96471013     0.16500
F1979       F  0.79647652  0.70373109  0.96385777    -0.22900
H1980       H  0.78362221  0.70267602  0.91973183     0.18300
C1981       C  0.74295650  0.88541854  0.75997055    -0.26900
C1982       C  0.73777897  0.89281787  0.73686994     0.06700
C1983       C  0.73434151  0.87613961  0.71909998     0.26300
C1984       C  0.73573616  0.85247611  0.72455399    -0.11400
C1985       C  0.74060307  0.84503402  0.74779172    -0.25400
C1986       C  0.74438146  0.86183570  0.76545034     0.37100
C1987       C  0.73744110  0.91799628  0.73145074     0.06700
F1988       F  0.72919249  0.88270886  0.69659551    -0.19100
H1989       H  0.73259707  0.83995667  0.71064060     0.16500
F1990       F  0.74990585  0.85557234  0.78795869    -0.22900
H1991       H  0.74631304  0.89800740  0.77377602     0.18300
C1992       C  0.72451348  0.93320784  0.74525369     0.26300
C1993       C  0.72722709  0.95725563  0.74244834    -0.11400
C1994       C  0.74276558  0.96648656  0.72575506    -0.25400
C1995       C  0.75460562  0.95118623  0.71100544     0.37200
C1996       C  0.75193396  0.92720492  0.71386433    -0.27000
F1997       F  0.70989504  0.92478470  0.76202851    -0.19200
H1998       H  0.71823493  0.96854755  0.75432585     0.16500
F1999       F  0.76958776  0.95942647  0.69446603    -0.22900
H2000       H  0.76214833  0.91582698  0.70313304     0.18300
C2001       C  0.85967325  0.73342976  0.77401323    -0.26900
C2002       C  0.87322987  0.73551181  0.75354595     0.06700
C2003       C  0.86196862  0.73662739  0.73144855     0.26300
C2004       C  0.83770706  0.73543701  0.72987703    -0.11400
C2005       C  0.82403501  0.73328832  0.75028408    -0.25400
C2006       C  0.83531952  0.73250579  0.77248483     0.37100
C2007       C  0.89902855  0.73502943  0.75523738     0.06700
F2008       F  0.87446070  0.73794935  0.71128088    -0.19100
H2009       H  0.82958094  0.73613883  0.71253878     0.16500
F2010       F  0.82292233  0.73005693  0.79263125    -0.22900
H2011       H  0.86801502  0.73237840  0.79122891     0.18300
C2012       C  0.91313670  0.75273310  0.74527695     0.26300
C2013       C  0.93746008  0.75184170  0.74728128    -0.11400
C2014       C  0.94800386  0.73339200  0.75935235    -0.25400
C2015       C  0.93386959  0.71557576  0.76891511     0.37200
C2016       C  0.90969959  0.71641765  0.76685267    -0.27000
F2017       F  0.90337173  0.77138901  0.73461915    -0.19200
H2018       H  0.94799234  0.76604744  0.74037683     0.16500
F2019       F  0.94351616  0.69744157  0.78061858    -0.22900
H2020       H  0.89923579  0.70249938  0.77443672     0.18300
loop_ 
_geom_bond_atom_site_label_1 
_geom_bond_atom_site_label_2 
_geom_bond_distance 
_geom_bond_site_symmetry_2 
_ccdc_geom_bond_type 
O1           Ni7   1.914       .  S
O1           C22   1.267       .  A
O2          Ni25   1.900       .  S
O2           C11   1.266       .  A
O3           Ni7   1.891       .  S
O3          Ni25   1.893       .  S
O3          Ni19   1.906       .  S
O3           H26   0.967       .  S
C4           O21   1.277       .  A
C4           O13   1.279       .  A
C4         C1985   1.482       .  S
O5          Ni24   1.934       .  S
O5           C11   1.273       .  A
O6          Ni24   1.904       .  S
O6            C8   1.270       .  A
Ni7          O10   1.911       .  S
Ni7          O12   1.905       .  S
C8           O18   1.278       .  A
C8         C1905   1.498       .  S
O9          Ni25   1.935       .  S
O9           C15   1.282       .  A
O10          C15   1.279       .  A
C11        C1965   1.472       .  S
O12          C14   1.266       .  A
O13         Ni24   1.927       .  S
C14          O20   1.271       .  A
C14        C2005   1.490       .  S
C15        C1925   1.488       .  S
H16          O17   0.966       .  S
O17         Ni25   1.914       .  S
O17         Ni19   1.905       .  S
O17         Ni24   1.896       .  S
O18         Ni19   1.950       .  S
Ni19         O23   1.919       .  S
Ni19         O21   1.913       .  S
O20         Ni25   1.937       .  S
C22          O23   1.272       .  A
C22        C1954   1.470       .  S
O27         Ni33   1.944       .  S
O27          C48   1.277       .  A
O28         Ni51   1.940       .  S
O28          C37   1.277       .  A
O29         Ni33   1.899       .  S
O29         Ni51   1.912       .  S
O29         Ni45   1.917       .  S
O29          H52   0.966       .  S
C30          O47   1.283       .  A
C30          O39   1.278       .  A
C30        C1894   1.500       .  S
O31         Ni50   1.918       .  S
O31          C37   1.267       .  A
O32         Ni50   1.905       .  S
O32          C34   1.267       .  A
Ni33         O36   1.930       .  S
Ni33         O38   1.914       .  S
C34          O44   1.274       .  A
C34        C1845   1.497       .  S
O35         Ni51   1.933       .  S
O35          C41   1.282       .  A
O36          C41   1.279       .  A
C37        C1785   1.492       .  S
O38          C40   1.272       .  A
O39         Ni50   1.917       .  S
C40          O46   1.281       .  A
C40        C1865   1.509       .  S
C41        C1814   1.486       .  S
H42          O43   0.966       .  S
O43         Ni51   1.925       .  S
O43         Ni45   1.909       .  S
O43         Ni50   1.903       .  S
O44         Ni45   1.943       .  S
Ni45         O49   1.916       .  S
Ni45         O47   1.950       .  S
O46         Ni51   1.958       .  S
C48          O49   1.272       .  A
C48        C1834   1.497       .  S
N53          C57   1.361       .  A
N53          C54   1.358       .  A
N53        C1765   1.444       .  S
C54        C1945   1.471       .  S
C54          C55   1.379       .  A
C55          C56   1.367       .  A
C55          H58   1.082       .  S
C56          C57   1.384       .  A
C56          H59   1.082       .  S
C57        C1745   1.479       .  S
N60          C64   1.364       .  A
N60          C61   1.364   1_655  A
N60        C1725   1.446       .  S
C61        C1794   1.487       .  S
C61          C62   1.382       .  A
C62          C63   1.370   1_455  A
C62          H65   1.082       .  S
C63          C64   1.382       .  A
C63          H66   1.082       .  S
C64        C2014   1.485       .  S
N67          C71   1.357   1_455  A
N67          C68   1.357       .  A
N67        C1714   1.446       .  S
C68        C1665   1.474       .  S
C68          C69   1.384       .  A
C69          C70   1.371   1_455  A
C69          H72   1.082       .  S
C70          C71   1.381       .  A
C70          H73   1.082       .  S
C71        C1694   1.471       .  S
N74          C79   1.356       .  A
N74          C78   1.357       .  A
N74         H106   1.032       .  S
N75          C82   1.353       .  A
N75          C83   1.354       .  A
N76          C81   1.355       .  A
N76          C80   1.355       .  A
N76         H107   1.028       .  S
N77          C84   1.353       .  A
N77          C85   1.354       .  A
C78          C86   1.389       .  A
C78          C94   1.426   1_655  A
C79          C95   1.423       .  A
C79          C87   1.387       .  A
C80          C88   1.388       .  A
C80          C97   1.425       .  A
C81          C96   1.425   1_455  A
C81          C89   1.388       .  A
C82          C94   1.423       .  A
C82          C90   1.387       .  A
C83          C97   1.423       .  A
C83          C91   1.387       .  A
C84          C92   1.386       .  A
C84          C95   1.419       .  A
C85          C93   1.388       .  A
C85          C96   1.422       .  A
C86          C87   1.375       .  A
C86          H98   1.080       .  S
C87          H99   1.082       .  S
C88          C89   1.377       .  A
C88         H100   1.082       .  S
C89         H101   1.082       .  S
C90          C91   1.371       .  A
C90         H102   1.082       .  S
C91         H103   1.082       .  S
C92          C93   1.372       .  A
C92         H104   1.082       .  S
C93         H105   1.082       .  S
C94        C1705   1.497       .  S
C95        C1774   1.492       .  S
C96        C1734   1.493       .  S
C97        C1654   1.494       .  S
N108        C112   1.362       .  A
N108        C109   1.362       .  A
N108       C1645   1.449       .  S
C109       C1854   1.481       .  S
C109        C110   1.382       .  A
C110        C111   1.372       .  A
C110        H113   1.082       .  S
C111        C112   1.380       .  A
C111        H114   1.082       .  S
C112       C1625   1.477       .  S
O115       Ni121   1.918       .  S
O115        C136   1.269       .  A
O116       Ni139   1.917       .  S
O116        C125   1.272       .  A
O117       Ni121   1.893       .  S
O117       Ni139   1.902       .  S
O117       Ni133   1.908       .  S
O117        H140   0.966       .  S
C118        O135   1.278       .  A
C118        O127   1.280       .  A
C118       C1585   1.469       .  S
O119       Ni138   1.926       .  S
O119        C125   1.273       .  A
O120       Ni138   1.905       .  S
O120        C122   1.269       .  A
Ni121       O124   1.909       .  S
Ni121       O126   1.905       .  S
C122        O132   1.277       .  A
C122       C1554   1.500       .  S
O123       Ni139   1.922       .  S
O123        C129   1.277       .  A
O124        C129   1.275       .  A
C125       C1574   1.474       .  S
O126        C128   1.268       .  A
O127       Ni138   1.922       .  S
C128        O134   1.277       .  A
C128       C1634   1.493       .  S
C129       C1614   1.481       .  S
H130        O131   0.967       .  S
O131       Ni139   1.902       .  S
O131       Ni133   1.892       .  S
O131       Ni138   1.884       .  S
O132       Ni133   1.948       .  S
Ni133       O137   1.910       .  S
Ni133       O135   1.910       .  S
O134       Ni139   1.944       .  S
C136        O137   1.272       .  A
C136       C1674   1.482       .  S
O141       Ni147   1.931       .  S
O141        C162   1.275       .  A
O142       Ni165   1.903       .  S
O142        C151   1.267       .  A
O143       Ni147   1.894       .  S
O143       Ni165   1.899       .  S
O143       Ni159   1.894       .  S
O143        H166   0.966       .  S
C144        O161   1.273       .  A
C144        O153   1.274       .  A
C144       C1525   1.454       .  S
O145       Ni164   1.927       .  S
O145        C151   1.270       .  A
O146       Ni164   1.905       .  S
O146        C148   1.269       .  A
Ni147       O150   1.928       .  S
Ni147       O152   1.905       .  S
C148        O158   1.275       .  A
C148       C1754   1.479       .  S
O149       Ni165   1.893       .  S
O149        C155   1.272       .  A
O150        C155   1.279       .  A
C151       C1685   1.480       .  S
O152        C154   1.267       .  A
O153       Ni164   1.911       .  S
C154        O160   1.271       .  A
C154       C1465   1.482       .  S
C155       C1505   1.473       .  S
H156        O157   0.963       .  S
O157       Ni165   1.901       .  S
O157       Ni159   1.904       .  S
O157       Ni164   1.895       .  S
O158       Ni159   1.934       .  S
Ni159       O163   1.908       .  S
Ni159       O161   1.917       .  S
O160       Ni165   1.933       .  S
C162        O163   1.272       .  A
C162       C1494   1.484       .  S
N167        C171   1.355   1_554  A
N167        C168   1.356       .  A
N167       C1445   1.436       .  S
C168       C1474   1.480       .  S
C168        C169   1.382       .  A
C169        C170   1.375   1_554  A
C169        H172   1.082       .  S
C170        C171   1.383       .  A
C170        H173   1.082       .  S
C171       C1974   1.478       .  S
N174        C178   1.357       .  A
N174        C175   1.357       .  A
N174       C1425   1.440       .  S
C175       C1405   1.478       .  S
C175        C176   1.382       .  A
C176        C177   1.374       .  A
C176        H179   1.082       .  S
C177        C178   1.383       .  A
C177        H180   1.082       .  S
C178       C1934   1.479       .  S
N181        C185   1.352   1_556  A
N181        C182   1.353       .  A
N181       C1385   1.440       .  S
C182       C1365   1.468       .  S
C182        C183   1.384       .  A
C183        C184   1.375   1_556  A
C183        H186   1.082       .  S
C184        C185   1.380       .  A
C184        H187   1.082       .  S
C185       C1345   1.468       .  S
N188        C193   1.353       .  A
N188        C192   1.358       .  A
N188        H220   1.038       .  S
N189        C196   1.353       .  A
N189        C197   1.351       .  A
N190        C195   1.355       .  A
N190        C194   1.349       .  A
N190        H221   1.038       .  S
N191        C198   1.349       .  A
N191        C199   1.352       .  A
C192        C200   1.388       .  A
C192        C208   1.422       .  A
C193        C209   1.418       .  A
C193        C201   1.387       .  A
C194        C202   1.387       .  A
C194        C211   1.412   1_556  A
C195        C210   1.416       .  A
C195        C203   1.387       .  A
C196        C208   1.417       .  A
C196        C204   1.387       .  A
C197        C211   1.414       .  A
C197        C205   1.385       .  A
C198        C206   1.388       .  A
C198        C209   1.412   1_556  A
C199        C207   1.385       .  A
C199        C210   1.412       .  A
C200        C201   1.376       .  A
C200        H212   1.081       .  S
C201        H213   1.082       .  S
C202        C203   1.375       .  A
C202        H214   1.082       .  S
C203        H215   1.082       .  S
C204        C205   1.372       .  A
C204        H216   1.081       .  S
C205        H217   1.082       .  S
C206        C207   1.371       .  A
C206        H218   1.082       .  S
C207        H219   1.082       .  S
C208       C1325   1.498       .  S
C209       C1454   1.481       .  S
C210       C1434   1.491       .  S
C211       C1394   1.477       .  S
N222        C226   1.352       .  A
N222        C223   1.358       .  A
N222       C1334   1.448       .  S
C223       C1514   1.468       .  S
C223        C224   1.384       .  A
C224        C225   1.369       .  A
C224        H227   1.082       .  S
C225        C226   1.380       .  A
C225        H228   1.082       .  S
C226       C1305   1.464       .  S
O229       Ni235   1.921       .  S
O229        C250   1.270       .  A
O230       Ni253   1.894       .  S
O230        C239   1.263       .  A
O231       Ni235   1.906       .  S
O231       Ni253   1.905       .  S
O231       Ni247   1.914       .  S
O231        H254   0.966       .  S
C232        O249   1.277       .  A
C232        O241   1.278       .  A
C232       C1254   1.484       .  S
O233       Ni252   1.926       .  S
O233        C239   1.271       .  A
O234       Ni252   1.915       .  S
O234        C236   1.269       .  A
Ni235       O238   1.924       .  S
Ni235       O240   1.898       .  S
C236        O246   1.272       .  A
C236       C1285   1.496       .  S
O237       Ni253   1.906       .  S
O237        C243   1.270       .  A
O238        C243   1.275       .  A
C239       C1314   1.452       .  S
O240        C242   1.267       .  A
O241       Ni252   1.920       .  S
C242        O248   1.275       .  A
C242       C1265   1.487       .  S
C243       C1354   1.477       .  S
H244        O245   0.966       .  S
O245       Ni253   1.902       .  S
O245       Ni247   1.889       .  S
O245       Ni252   1.898       .  S
O246       Ni247   1.930       .  S
Ni247       O251   1.889       .  S
Ni247       O249   1.925       .  S
O248       Ni253   1.941       .  S
C250        O251   1.263       .  A
C250       C1234   1.454       .  S
O255       Ni261   1.932       .  S
O255        C276   1.275       .  A
O256       Ni279   1.907       .  S
O256        C265   1.268       .  A
O257       Ni261   1.899       .  S
O257       Ni279   1.899       .  S
O257       Ni273   1.908       .  S
O257        H280   0.966       .  S
C258        O275   1.275       .  A
C258        O267   1.275       .  A
C258       C1165   1.470       .  S
O259       Ni278   1.929       .  S
O259        C265   1.272       .  A
O260       Ni278   1.907       .  S
O260        C262   1.269       .  A
Ni261       O264   1.923       .  S
Ni261       O266   1.907       .  S
C262        O272   1.274       .  A
C262       C1145   1.491       .  S
O263       Ni279   1.910       .  S
O263        C269   1.275       .  A
O264        C269   1.277       .  A
C265       C1194   1.485       .  S
O266        C268   1.270       .  A
O267       Ni278   1.918       .  S
C268        O274   1.276       .  A
C268       C1414   1.495       .  S
C269       C1374   1.482       .  S
H270        O271   0.967       .  S
O271       Ni279   1.912       .  S
O271       Ni273   1.909       .  S
O271       Ni278   1.905       .  S
O272       Ni273   1.935       .  S
Ni273       O277   1.899       .  S
Ni273       O275   1.925       .  S
O274       Ni279   1.940       .  S
C276        O277   1.269       .  A
C276       C1205   1.474       .  S
N281        C285   1.358       .  A
N281        C282   1.361   1_545  A
N281       C1125   1.443       .  S
C282       C1994   1.484       .  S
C282        C283   1.385       .  A
C283        C284   1.371   1_565  A
C283        H286   1.082       .  S
C284        C285   1.379       .  A
C284        H287   1.082       .  S
C285       C1154   1.476       .  S
N288        C292   1.361       .  A
N288        C289   1.363       .  A
N288       C1114   1.442       .  S
C289       C1914   1.490       .  S
C289        C290   1.385       .  A
C290        C291   1.374       .  A
C290        H293   1.082       .  S
C291        C292   1.381       .  A
C291        H294   1.082       .  S
C292       C1825   1.487       .  S
N295        C299   1.366       .  A
N295        C296   1.364   1_545  A
N295       C1094   1.445       .  S
C296       C1885   1.488       .  S
C296        C297   1.381       .  A
C297        C298   1.372   1_565  A
C297        H300   1.082       .  S
C298        C299   1.383       .  A
C298        H301   1.082       .  S
C299       C1065   1.490       .  S
N302        C307   1.356       .  A
N302        C306   1.356       .  A
N302        H334   1.031   1_565  S
N303        C310   1.352       .  A
N303        C311   1.352       .  A
N304        C309   1.355       .  A
N304        C308   1.355       .  A
N304        H335   1.031       .  S
N305        C312   1.353       .  A
N305        C313   1.353       .  A
C306        C314   1.387       .  A
C306        C322   1.423       .  A
C307        C323   1.424   1_565  A
C307        C315   1.388       .  A
C308        C316   1.388       .  A
C308        C325   1.423       .  A
C309        C324   1.423       .  A
C309        C317   1.388       .  A
C310        C322   1.419       .  A
C310        C318   1.387       .  A
C311        C325   1.420   1_565  A
C311        C319   1.387       .  A
C312        C320   1.387       .  A
C312        C323   1.421       .  A
C313        C321   1.387       .  A
C313        C324   1.422       .  A
C314        C315   1.371       .  A
C314        H326   1.082       .  S
C315        H327   1.082       .  S
C316        C317   1.375       .  A
C316        H328   1.082       .  S
C317        H329   1.081       .  S
C318        C319   1.372       .  A
C318        H330   1.082       .  S
C319        H331   1.082       .  S
C320        C321   1.372       .  A
C320        H332   1.082       .  S
C321        H333   1.082       .  S
C322       C1105   1.491       .  S
C323       C1134   1.492       .  S
C324       C1054   1.492       .  S
C325       C1085   1.489       .  S
N336        C340   1.356       .  A
N336        C337   1.357       .  A
N336       C1045   1.440       .  S
C337       C1185   1.481       .  S
C337        C338   1.385       .  A
C338        C339   1.375       .  A
C338        H341   1.082       .  S
C339        C340   1.380       .  A
C339        H342   1.082       .  S
C340       C1025   1.478       .  S
O343       Ni349   1.929       .  S
O343        C364   1.272       .  A
O344       Ni367   1.899       .  S
O344        C353   1.266       .  A
O345       Ni349   1.913       .  S
O345       Ni367   1.908       .  S
O345       Ni361   1.918       .  S
O345        H368   0.965       .  S
C346        O363   1.276       .  A
C346        O355   1.278       .  A
C346       C1014   1.488       .  S
O347       Ni366   1.937       .  S
O347        C353   1.273       .  A
O348       Ni366   1.901       .  S
O348        C350   1.270       .  A
Ni349       O352   1.930       .  S
Ni349       O354   1.909       .  S
C350        O360   1.278       .  A
C350        C985   1.493       .  S
O351       Ni367   1.918       .  S
O351        C357   1.273       .  A
O352        C357   1.277       .  A
C353        C945   1.484       .  S
O354        C356   1.268       .  A
O355       Ni366   1.925       .  S
C356        O362   1.274       .  A
C356       C1074   1.495       .  S
C357        C965   1.486       .  S
H358        O359   0.968       .  S
O359       Ni367   1.901       .  S
O359       Ni361   1.906       .  S
O359       Ni366   1.902       .  S
O360       Ni361   1.951       .  S
Ni361       O365   1.914       .  S
Ni361       O363   1.918       .  S
O362       Ni367   1.934       .  S
C364        O365   1.272       .  A
C364       C1034   1.490       .  S
N369        C373   1.368       .  A
N369        C370   1.370   1_554  A
N369        C925   1.444       .  S
C370       C1874   1.505       .  S
C370        C371   1.385       .  A
C371        C372   1.372   1_556  A
C371        H374   1.082       .  S
C372        C373   1.380       .  A
C372        H375   1.082       .  S
C373       C1545   1.493       .  S
N376        C380   1.357       .  A
N376        C377   1.355       .  A
N376        C905   1.436       .  S
C377       C1805   1.478       .  S
C377        C378   1.381       .  A
C378        C379   1.378       .  A
C378        H381   1.082       .  S
C379        C380   1.383       .  A
C379        H382   1.082       .  S
C380        C994   1.482       .  S
N383        C387   1.360       .  A
N383        C384   1.360   1_554  A
N383        C894   1.446       .  S
C384       C1005   1.475       .  S
C384        C385   1.382       .  A
C385        C386   1.371   1_556  A
C385        H388   1.082       .  S
C386        C387   1.382       .  A
C386        H389   1.082       .  S
C387        C865   1.477       .  S
N390        C395   1.353       .  A
N390        C394   1.354       .  A
N390        H422   1.035       .  S
N391        C398   1.355       .  A
N391        C399   1.354       .  A
N392        C397   1.355       .  A
N392        C396   1.354       .  A
N392        H423   1.034       .  S
N393        C400   1.353       .  A
N393        C401   1.353       .  A
C394        C402   1.388       .  A
C394        C410   1.418   1_556  A
C395        C411   1.417       .  A
C395        C403   1.387       .  A
C396        C404   1.387       .  A
C396        C413   1.418       .  A
C397        C412   1.420       .  A
C397        C405   1.388       .  A
C398        C410   1.420       .  A
C398        C406   1.387       .  A
C399        C413   1.419       .  A
C399        C407   1.386       .  A
C400        C408   1.386       .  A
C400        C411   1.416       .  A
C401        C409   1.386       .  A
C401        C412   1.416   1_556  A
C402        C403   1.375       .  A
C402        H414   1.082       .  S
C403        H415   1.083       .  S
C404        C405   1.377       .  A
C404        H416   1.082       .  S
C405        H417   1.082       .  S
C406        C407   1.372       .  A
C406        H418   1.082       .  S
C407        H419   1.082       .  S
C408        C409   1.372       .  A
C408        H420   1.082       .  S
C409        H421   1.082       .  S
C410        C934   1.491       .  S
C411        C914   1.486       .  S
C412        C885   1.490       .  S
C413        C845   1.489       .  S
N424        C428   1.357       .  A
N424        C425   1.358       .  A
N424        C854   1.446       .  S
C425       C1594   1.476       .  S
C425        C426   1.384       .  A
C426        C427   1.370       .  A
C426        H429   1.082       .  S
C427        C428   1.381       .  A
C427        H430   1.082       .  S
C428        C825   1.470       .  S
N431        C435   1.360       .  A
N431        C432   1.362       .  A
N431        C805   1.445       .  S
C432       C1485   1.482       .  S
C432        C433   1.383       .  A
C433        C434   1.370       .  A
C433        H436   1.082       .  S
C434        C435   1.382       .  A
C434        H437   1.082       .  S
C435       C1565   1.479       .  S
N438        C442   1.359       .  A
N438        C439   1.355       .  A
N438        C785   1.445       .  S
C439       C1534   1.473       .  S
C439        C440   1.381       .  A
C440        C441   1.370       .  A
C440        H443   1.082       .  S
C441        C442   1.385       .  A
C441        H444   1.082       .  S
C442       C1225   1.479   1_565  S
N445        C449   1.353       .  A
N445        C446   1.354   1_565  A
N445        C765   1.440       .  S
C446        C745   1.472       .  S
C446        C447   1.384       .  A
C447        C448   1.372   1_545  A
C447        H450   1.082       .  S
C448        C449   1.381       .  A
C448        H451   1.082       .  S
C449       C1605   1.467       .  S
N452        C457   1.353       .  A
N452        C456   1.356       .  A
N452        H484   1.038       .  S
N453        C460   1.352       .  A
N453        C461   1.350       .  A
N454        C459   1.356       .  A
N454        C458   1.355       .  A
N454        H485   1.038       .  S
N455        C462   1.355       .  A
N455        C463   1.355       .  A
C456        C464   1.385       .  A
C456        C472   1.416       .  A
C457        C473   1.419       .  A
C457        C465   1.389       .  A
C458        C466   1.386       .  A
C458        C475   1.418       .  A
C459        C474   1.421   1_545  A
C459        C467   1.388       .  A
C460        C472   1.411   1_545  A
C460        C468   1.385       .  A
C461        C475   1.413       .  A
C461        C469   1.388       .  A
C462        C470   1.386       .  A
C462        C473   1.418       .  A
C463        C471   1.386       .  A
C463        C474   1.420       .  A
C464        C465   1.374       .  A
C464        H476   1.082       .  S
C465        H477   1.082       .  S
C466        C467   1.378       .  A
C466        H478   1.082       .  S
C467        H479   1.082       .  S
C468        C469   1.370       .  A
C468        H480   1.082       .  S
C469        H481   1.083       .  S
C470        C471   1.374       .  A
C470        H482   1.082       .  S
C471        H483   1.082       .  S
C472        C774   1.492       .  S
C473        C814   1.489       .  S
C474        C794   1.499       .  S
C475        C725   1.485       .  S
N486        C490   1.357       .  A
N486        C487   1.353       .  A
N486        C734   1.438       .  S
C487        C705   1.470       .  S
C487        C488   1.380       .  A
C488        C489   1.375       .  A
C488        H491   1.082       .  S
C489        C490   1.383       .  A
C489        H492   1.082       .  S
C490       C1274   1.479       .  S
N493        C497   1.356       .  A
N493        C494   1.358       .  A
N493        C685   1.442       .  S
C494       C1245   1.484       .  S
C494        C495   1.383       .  A
C495        C496   1.377       .  A
C495        H498   1.082       .  S
C496        C497   1.384       .  A
C496        H499   1.082       .  S
C497       C1174   1.479       .  S
N500        C504   1.358       .  A
N500        C501   1.355   1_455  A
N500        C674   1.440       .  S
C501       C1214   1.467       .  S
C501        C502   1.378       .  A
C502        C503   1.373   1_655  A
C502        H505   1.082       .  S
C503        C504   1.385       .  A
C503        H506   1.082       .  S
C504        C954   1.483       .  S
N507        C511   1.362   1_655  A
N507        C508   1.364       .  A
N507        C654   1.443       .  S
C508       C1294   1.490       .  S
C508        C509   1.382       .  A
C509        C510   1.374   1_655  A
C509        H512   1.082       .  S
C510        C511   1.382       .  A
C510        H513   1.082       .  S
C511        C634   1.487       .  S
N514        C519   1.356       .  A
N514        C518   1.353       .  A
N514        H546   1.038       .  S
N515        C522   1.352       .  A
N515        C523   1.354       .  A
N516        C521   1.353       .  A
N516        C520   1.353       .  A
N516        H547   1.040       .  S
N517        C524   1.349       .  A
N517        C525   1.349       .  A
C518        C526   1.388       .  A
C518        C534   1.418       .  A
C519        C535   1.417       .  A
C519        C527   1.386       .  A
C520        C528   1.386       .  A
C520        C537   1.414       .  A
C521        C536   1.414   1_455  A
C521        C529   1.387       .  A
C522        C534   1.418   1_455  A
C522        C530   1.388       .  A
C523        C537   1.415       .  A
C523        C531   1.385       .  A
C524        C532   1.386       .  A
C524        C535   1.410       .  A
C525        C533   1.387       .  A
C525        C536   1.411       .  A
C526        C527   1.377       .  A
C526        H538   1.081       .  S
C527        H539   1.082       .  S
C528        C529   1.375       .  A
C528        H540   1.082       .  S
C529        H541   1.082       .  S
C530        C531   1.370       .  A
C530        H542   1.081       .  S
C531        H543   1.082       .  S
C532        C533   1.372       .  A
C532        H544   1.083       .  S
C533        H545   1.082       .  S
C534        C645   1.486       .  S
C535        C694   1.487       .  S
C536        C665   1.485       .  S
C537        C614   1.496       .  S
N548        C552   1.356       .  A
N548        C549   1.355       .  A
N548        C605   1.437       .  S
C549        C585   1.477       .  S
C549        C550   1.383       .  A
C550        C551   1.375       .  A
C550        H553   1.082       .  S
C551        C552   1.383       .  A
C551        H554   1.082       .  S
C552        C974   1.480       .  S
O555       Ni561   1.937       .  S
O555        C576   1.275       .  A
O556       Ni579   1.894       .  S
O556        C565   1.266       .  A
O557       Ni561   1.904       .  S
O557       Ni579   1.896       .  S
O557       Ni573   1.902       .  S
O557        H580   0.970       .  S
C558        O575   1.271       .  A
C558        O567   1.276       .  A
C558        C714   1.482       .  S
O559       Ni578   1.933       .  S
O559        C565   1.272       .  A
O560       Ni578   1.902       .  S
O560        C562   1.269       .  A
Ni561       O564   1.934       .  S
Ni561       O566   1.909       .  S
C562        O572   1.275       .  A
C562        C874   1.479       .  S
O563       Ni579   1.925       .  S
O563        C569   1.279       .  A
O564        C569   1.280       .  A
C565        C834   1.477       .  S
O566        C568   1.269       .  A
O567       Ni578   1.930       .  S
C568        O574   1.270       .  A
C568        C594   1.489       .  S
C569        C625   1.494       .  S
H570        O571   0.969       .  S
O571       Ni579   1.922       .  S
O571       Ni573   1.906       .  S
O571       Ni578   1.910       .  S
O572       Ni573   1.929       .  S
Ni573       O577   1.896       .  S
Ni573       O575   1.914       .  S
O574       Ni579   1.928       .  S
C576        O577   1.266       .  A
C576        C754   1.479       .  S
C581        C582   1.409       .  A
C581        C586   1.403       .  A
C581        H591   1.083       .  S
C582        C587   1.486       .  S
C582        C583   1.406       .  A
C583        C584   1.394       .  A
C583        F588   1.357       .  S
C584        C585   1.401       .  A
C584        H589   1.084       .  S
C585        C586   1.404       .  A
C586        F590   1.357       .  S
C587        C592   1.407       .  A
C587        C596   1.403       .  A
C592        C593   1.398       .  A
C592        F597   1.358       .  S
C593        C594   1.407       .  A
C593        H598   1.083       .  S
C594        C595   1.413       .  A
C595        C596   1.400       .  A
C595        F599   1.358       .  S
C596        H600   1.083       .  S
C601        C602   1.410       .  A
C601        C606   1.402       .  A
C601        H611   1.082       .  S
C602        C607   1.495       .  S
C602        C603   1.412       .  A
C603        C604   1.398       .  A
C603        F608   1.358       .  S
C604        C605   1.399       .  A
C604        H609   1.083       .  S
C605        C606   1.401       .  A
C606        F610   1.356       .  S
C607        C612   1.412       .  A
C607        C616   1.407       .  A
C612        C613   1.403       .  A
C612        F617   1.357       .  S
C613        C614   1.406       .  A
C613        H618   1.083       .  S
C614        C615   1.405       .  A
C615        C616   1.397       .  A
C615        F619   1.358       .  S
C616        H620   1.083       .  S
C621        C622   1.406       .  A
C621        C626   1.407       .  A
C621        H631   1.083       .  S
C622        C627   1.484       .  S
C622        C623   1.401       .  A
C623        C624   1.397       .  A
C623        F628   1.357       .  S
C624        C625   1.410       .  A
C624        H629   1.083       .  S
C625        C626   1.412       .  A
C626        F630   1.357       .  S
C627        C632   1.407       .  A
C627        C636   1.402       .  A
C632        C633   1.407       .  A
C632        F637   1.357       .  S
C633        C634   1.406       .  A
C633        H638   1.083       .  S
C634        C635   1.406       .  A
C635        C636   1.398       .  A
C635        F639   1.358       .  S
C636        H640   1.083       .  S
C641        C642   1.407       .  A
C641        C646   1.398       .  A
C641        H651   1.083       .  S
C642        C647   1.487       .  S
C642        C643   1.409       .  A
C643        C644   1.396       .  A
C643        F648   1.357       .  S
C644        C645   1.402       .  A
C644        H649   1.083       .  S
C645        C646   1.404       .  A
C646        F650   1.357       .  S
C647        C652   1.409   1_655  A
C647        C656   1.405       .  A
C652        C653   1.399       .  A
C652        F657   1.358       .  S
C653        C654   1.405   1_455  A
C653        H658   1.082       .  S
C654        C655   1.406       .  A
C655        C656   1.396       .  A
C655        F659   1.356       .  S
C656        H660   1.083       .  S
C661        C662   1.404   1_455  A
C661        C666   1.399       .  A
C661        H671   1.083       .  S
C662        C667   1.476       .  S
C662        C663   1.405       .  A
C663        C664   1.395       .  A
C663        F668   1.357       .  S
C664        C665   1.403       .  A
C664        H669   1.083       .  S
C665        C666   1.406   1_655  A
C666        F670   1.358       .  S
C667        C672   1.405   1_655  A
C667        C676   1.402       .  A
C672        C673   1.397       .  A
C672        F677   1.358       .  S
C673        C674   1.403       .  A
C673        H678   1.083       .  S
C674        C675   1.407   1_455  A
C675        C676   1.398       .  A
C675        F679   1.354       .  S
C676        H680   1.083       .  S
C681        C682   1.404       .  A
C681        C686   1.399       .  A
C681        H691   1.083       .  S
C682        C687   1.479       .  S
C682        C683   1.405       .  A
C683        C684   1.397       .  A
C683        F688   1.358       .  S
C684        C685   1.403       .  A
C684        H689   1.083       .  S
C685        C686   1.407       .  A
C686        F690   1.356       .  S
C687        C692   1.407       .  A
C687        C696   1.403       .  A
C692        C693   1.400       .  A
C692        F697   1.357       .  S
C693        C694   1.403       .  A
C693        H698   1.083       .  S
C694        C695   1.406       .  A
C695        C696   1.397       .  A
C695        F699   1.358       .  S
C696        H700   1.083       .  S
C701        C702   1.403       .  A
C701        C706   1.398       .  A
C701        H711   1.083       .  S
C702        C707   1.477       .  S
C702        C703   1.406       .  A
C703        C704   1.399       .  A
C703        F708   1.357       .  S
C704        C705   1.401       .  A
C704        H709   1.083       .  S
C705        C706   1.403       .  A
C706        F710   1.358       .  S
C707        C712   1.405       .  A
C707        C716   1.402       .  A
C712        C713   1.397       .  A
C712        F717   1.358       .  S
C713        C714   1.404       .  A
C713        H718   1.083       .  S
C714        C715   1.412       .  A
C715        C716   1.401       .  A
C715        F719   1.358       .  S
C716        H720   1.083       .  S
C721        C722   1.403       .  A
C721        C726   1.398       .  A
C721        H731   1.083       .  S
C722        C727   1.481       .  S
C722        C723   1.408       .  A
C723        C724   1.399       .  A
C723        F728   1.357       .  S
C724        C725   1.401       .  A
C724        H729   1.083       .  S
C725        C726   1.406       .  A
C726        F730   1.358       .  S
C727        C732   1.407       .  A
C727        C736   1.404       .  A
C732        C733   1.398       .  A
C732        F737   1.358       .  S
C733        C734   1.402       .  A
C733        H738   1.082       .  S
C734        C735   1.404       .  A
C735        C736   1.399       .  A
C735        F739   1.357       .  S
C736        H740   1.083       .  S
C741        C742   1.403       .  A
C741        C746   1.398       .  A
C741        H751   1.083       .  S
C742        C747   1.470       .  S
C742        C743   1.402       .  A
C743        C744   1.393       .  A
C743        F748   1.358       .  S
C744        C745   1.402       .  A
C744        H749   1.084       .  S
C745        C746   1.406       .  A
C746        F750   1.357       .  S
C747        C752   1.402       .  A
C747        C756   1.401       .  A
C752        C753   1.393       .  A
C752        F757   1.358       .  S
C753        C754   1.406       .  A
C753        H758   1.083       .  S
C754        C755   1.411       .  A
C755        C756   1.399       .  A
C755        F759   1.357       .  S
C756        H760   1.083       .  S
C761        C762   1.406       .  A
C761        C766   1.397       .  A
C761        H771   1.083       .  S
C762        C767   1.488       .  S
C762        C763   1.409   1_565  A
C763        C764   1.401       .  A
C763        F768   1.357       .  S
C764        C765   1.402   1_545  A
C764        H769   1.083       .  S
C765        C766   1.404       .  A
C766        F770   1.357       .  S
C767        C772   1.408   1_565  A
C767        C776   1.406       .  A
C772        C773   1.399       .  A
C772        F777   1.358       .  S
C773        C774   1.404   1_545  A
C773        H778   1.083       .  S
C774        C775   1.405       .  A
C775        C776   1.402       .  A
C775        F779   1.357       .  S
C776        H780   1.083       .  S
C781        C782   1.406       .  A
C781        C786   1.399       .  A
C781        H791   1.083       .  S
C782        C787   1.495       .  S
C782        C783   1.412       .  A
C783        C784   1.405       .  A
C783        F788   1.357       .  S
C784        C785   1.404       .  A
C784        H789   1.083       .  S
C785        C786   1.404       .  A
C786        F790   1.357       .  S
C787        C792   1.410   1_565  A
C787        C796   1.407       .  A
C792        C793   1.403       .  A
C792        F797   1.357       .  S
C793        C794   1.404   1_545  A
C793        H798   1.083       .  S
C794        C795   1.408       .  A
C795        C796   1.403       .  A
C795        F799   1.357       .  S
C796        H800   1.083       .  S
C801        C802   1.408       .  A
C801        C806   1.399       .  A
C801        H811   1.082       .  S
C802        C807   1.497       .  S
C802        C803   1.412       .  A
C803        C804   1.401       .  A
C803        F808   1.357       .  S
C804        C805   1.404       .  A
C804        H809   1.083       .  S
C805        C806   1.404       .  A
C806        F810   1.356       .  S
C807        C812   1.412       .  A
C807        C816   1.410       .  A
C812        C813   1.399       .  A
C812        F817   1.357       .  S
C813        C814   1.402       .  A
C813        H818   1.083       .  S
C814        C815   1.403       .  A
C815        C816   1.402       .  A
C815        F819   1.357       .  S
C816        H820   1.082       .  S
C821        C822   1.403       .  A
C821        C826   1.400       .  A
C821        H831   1.083       .  S
C822        C827   1.469       .  S
C822        C823   1.403       .  A
C823        C824   1.390       .  A
C823        F828   1.358       .  S
C824        C825   1.401       .  A
C824        H829   1.084       .  S
C825        C826   1.406       .  A
C826        F830   1.357       .  S
C827        C832   1.403       .  A
C827        C836   1.400       .  A
C832        C833   1.393       .  A
C832        F837   1.358       .  S
C833        C834   1.405       .  A
C833        H838   1.083       .  S
C834        C835   1.411       .  A
C835        C836   1.397       .  A
C835        F839   1.358       .  S
C836        H840   1.084       .  S
C841        C842   1.406       .  A
C841        C846   1.397       .  A
C841        H851   1.083       .  S
C842        C847   1.490       .  S
C842        C843   1.410       .  A
C843        C844   1.405       .  A
C843        F848   1.357       .  S
C844        C845   1.404       .  A
C844        H849   1.083       .  S
C845        C846   1.402       .  A
C846        F850   1.357       .  S
C847        C852   1.408       .  A
C847        C856   1.407       .  A
C852        C853   1.397       .  A
C852        F857   1.357       .  S
C853        C854   1.402       .  A
C853        H858   1.083       .  S
C854        C855   1.409       .  A
C855        C856   1.404       .  A
C855        F859   1.357       .  S
C856        H860   1.083       .  S
C861        C862   1.405       .  A
C861        C866   1.399       .  A
C861        H871   1.083       .  S
C862        C867   1.478       .  S
C862        C863   1.404       .  A
C863        C864   1.395       .  A
C863        F868   1.358       .  S
C864        C865   1.403       .  A
C864        H869   1.083       .  S
C865        C866   1.405       .  A
C866        F870   1.357       .  S
C867        C872   1.402       .  A
C867        C876   1.405       .  A
C872        C873   1.396       .  A
C872        F877   1.358       .  S
C873        C874   1.408       .  A
C873        H878   1.083       .  S
C874        C875   1.407       .  A
C875        C876   1.399       .  A
C875        F879   1.358       .  S
C876        H880   1.083       .  S
C881        C882   1.407       .  A
C881        C886   1.402       .  A
C881        H891   1.083       .  S
C882        C887   1.490       .  S
C882        C883   1.409       .  A
C883        C884   1.400       .  A
C883        F888   1.357   1_554  S
C884        C885   1.402       .  A
C884        H889   1.083   1_554  S
C885        C886   1.405       .  A
C886        F890   1.357       .  S
C887        C892   1.408       .  A
C887        C896   1.406   1_554  A
C892        C893   1.400       .  A
C892        F897   1.357       .  S
C893        C894   1.404       .  A
C893        H898   1.083       .  S
C894        C895   1.407   1_554  A
C895        C896   1.402       .  A
C895        F899   1.356       .  S
C896        H900   1.083       .  S
C901        C902   1.407       .  A
C901        C906   1.401       .  A
C901        H911   1.083       .  S
C902        C907   1.486       .  S
C902        C903   1.408       .  A
C903        C904   1.396       .  A
C903        F908   1.357       .  S
C904        C905   1.400       .  A
C904        H909   1.083       .  S
C905        C906   1.403       .  A
C906        F910   1.357       .  S
C907        C912   1.408       .  A
C907        C916   1.407       .  A
C912        C913   1.399       .  A
C912        F917   1.357       .  S
C913        C914   1.403       .  A
C913        H918   1.083       .  S
C914        C915   1.403       .  A
C915        C916   1.398       .  A
C915        F919   1.357       .  S
C916        H920   1.083       .  S
C921        C922   1.408       .  A
C921        C926   1.400       .  A
C921        H931   1.082       .  S
C922        C927   1.495       .  S
C922        C923   1.411   1_554  A
C923        C924   1.400       .  A
C923        F928   1.357       .  S
C924        C925   1.404   1_556  A
C924        H929   1.083       .  S
C925        C926   1.405       .  A
C926        F930   1.356       .  S
C927        C932   1.413       .  A
C927        C936   1.408       .  A
C932        C933   1.401       .  A
C932        F937   1.357       .  S
C933        C934   1.402       .  A
C933        H938   1.083       .  S
C934        C935   1.404       .  A
C935        C936   1.399       .  A
C935        F939   1.357       .  S
C936        H940   1.082       .  S
C941        C942   1.404       .  A
C941        C946   1.397       .  A
C941        H951   1.083       .  S
C942        C947   1.482       .  S
C942        C943   1.405       .  A
C943        C944   1.398       .  A
C943        F948   1.357       .  S
C944        C945   1.407       .  A
C944        H949   1.083       .  S
C945        C946   1.410       .  A
C946        F950   1.357       .  S
C947        C952   1.406       .  A
C947        C956   1.404       .  A
C952        C953   1.395       .  A
C952        F957   1.357       .  S
C953        C954   1.404       .  A
C953        H958   1.083       .  S
C954        C955   1.409       .  A
C955        C956   1.399       .  A
C955        F959   1.355       .  S
C956        H960   1.083       .  S
C961        C962   1.403       .  A
C961        C966   1.402       .  A
C961        H971   1.083       .  S
C962        C967   1.484       .  S
C962        C963   1.407       .  A
C963        C964   1.400       .  A
C963        F968   1.357       .  S
C964        C965   1.406       .  A
C964        H969   1.083       .  S
C965        C966   1.411       .  A
C966        F970   1.357       .  S
C967        C972   1.406       .  A
C967        C976   1.404       .  A
C972        C973   1.402       .  A
C972        F977   1.357       .  S
C973        C974   1.404       .  A
C973        H978   1.081       .  S
C974        C975   1.405       .  A
C975        C976   1.399       .  A
C975        F979   1.357       .  S
C976        H980   1.083       .  S
C981        C982   1.408       .  A
C981        C986   1.409       .  A
C981        H991   1.083       .  S
C982        C987   1.491       .  S
C982        C983   1.405       .  A
C983        C984   1.395       .  A
C983        F988   1.358       .  S
C984        C985   1.408       .  A
C984        H989   1.083       .  S
C985        C986   1.411       .  A
C986        F990   1.357       .  S
C987        C992   1.410       .  A
C987        C996   1.405       .  A
C992        C993   1.407       .  A
C992        F997   1.357       .  S
C993        C994   1.405       .  A
C993        H998   1.083       .  S
C994        C995   1.403       .  A
C995        C996   1.396       .  A
C995        F999   1.358       .  S
C996       H1000   1.083       .  S
C1001      C1002   1.405       .  A
C1001      C1006   1.403       .  A
C1001      H1011   1.083       .  S
C1002      C1007   1.477       .  S
C1002      C1003   1.404       .  A
C1003      C1004   1.392       .  A
C1003      F1008   1.358       .  S
C1004      C1005   1.402       .  A
C1004      H1009   1.084       .  S
C1005      C1006   1.406       .  A
C1006      F1010   1.357       .  S
C1007      C1012   1.401       .  A
C1007      C1016   1.404       .  A
C1012      C1013   1.393       .  A
C1012      F1017   1.358       .  S
C1013      C1014   1.409       .  A
C1013      H1018   1.083       .  S
C1014      C1015   1.412       .  A
C1015      C1016   1.403       .  A
C1015      F1019   1.357       .  S
C1016      H1020   1.083       .  S
C1021      C1022   1.405       .  A
C1021      C1026   1.397       .  A
C1021      H1031   1.083       .  S
C1022      C1027   1.485       .  S
C1022      C1023   1.407       .  A
C1023      C1024   1.401       .  A
C1023      F1028   1.357       .  S
C1024      C1025   1.403       .  A
C1024      H1029   1.083       .  S
C1025      C1026   1.405       .  A
C1026      F1030   1.357       .  S
C1027      C1032   1.408       .  A
C1027      C1036   1.401       .  A
C1032      C1033   1.402       .  A
C1032      F1037   1.357       .  S
C1033      C1034   1.406       .  A
C1033      H1038   1.083       .  S
C1034      C1035   1.414       .  A
C1035      C1036   1.397       .  A
C1035      F1039   1.358       .  S
C1036      H1040   1.084       .  S
C1041      C1042   1.410       .  A
C1041      C1046   1.405       .  A
C1041      H1051   1.083       .  S
C1042      C1047   1.493       .  S
C1042      C1043   1.409       .  A
C1043      C1044   1.395       .  A
C1043      F1048   1.358       .  S
C1044      C1045   1.401       .  A
C1044      H1049   1.083       .  S
C1045      C1046   1.404       .  A
C1046      F1050   1.356       .  S
C1047      C1052   1.411       .  A
C1047      C1056   1.407       .  A
C1052      C1053   1.404       .  A
C1052      F1057   1.357       .  S
C1053      C1054   1.405       .  A
C1053      H1058   1.083       .  S
C1054      C1055   1.403       .  A
C1055      C1056   1.395       .  A
C1055      F1059   1.357       .  S
C1056      H1060   1.083       .  S
C1061      C1062   1.407       .  A
C1061      C1066   1.408       .  A
C1061      H1071   1.083       .  S
C1062      C1067   1.485       .  S
C1062      C1063   1.403       .  A
C1063      C1064   1.397       .  A
C1063      F1068   1.358       .  S
C1064      C1065   1.406       .  A
C1064      H1069   1.083       .  S
C1065      C1066   1.408       .  A
C1066      F1070   1.357       .  S
C1067      C1072   1.406       .  A
C1067      C1076   1.401       .  A
C1072      C1073   1.402       .  A
C1072      F1077   1.357       .  S
C1073      C1074   1.408       .  A
C1073      H1078   1.083       .  S
C1074      C1075   1.416       .  A
C1075      C1076   1.402       .  A
C1075      F1079   1.357       .  S
C1076      H1080   1.083       .  S
C1081      C1082   1.407       .  A
C1081      C1086   1.399       .  A
C1081      H1091   1.083       .  S
C1082      C1087   1.490       .  S
C1082      C1083   1.410       .  A
C1083      C1084   1.400       .  A
C1083      F1088   1.357       .  S
C1084      C1085   1.402       .  A
C1084      H1089   1.083       .  S
C1085      C1086   1.404       .  A
C1086      F1090   1.357       .  S
C1087      C1092   1.409       .  A
C1087      C1096   1.406   1_545  A
C1092      C1093   1.399       .  A
C1092      F1097   1.357       .  S
C1093      C1094   1.404       .  A
C1093      H1098   1.082       .  S
C1094      C1095   1.408   1_545  A
C1095      C1096   1.399       .  A
C1095      F1099   1.357       .  S
C1096      H1100   1.083       .  S
C1101      C1102   1.406       .  A
C1101      C1106   1.396       .  A
C1101      H1111   1.083       .  S
C1102      C1107   1.487       .  S
C1102      C1103   1.409       .  A
C1103      C1104   1.402       .  A
C1103      F1108   1.357       .  S
C1104      C1105   1.405       .  A
C1104      H1109   1.083       .  S
C1105      C1106   1.403       .  A
C1106      F1110   1.357       .  S
C1107      C1112   1.406       .  A
C1107      C1116   1.408       .  A
C1112      C1113   1.394       .  A
C1112      F1117   1.358       .  S
C1113      C1114   1.403       .  A
C1113      H1118   1.083       .  S
C1114      C1115   1.406       .  A
C1115      C1116   1.404       .  A
C1115      F1119   1.356       .  S
C1116      H1120   1.083       .  S
C1121      C1122   1.407       .  A
C1121      C1126   1.401   1_545  A
C1121      H1131   1.083   1_545  S
C1122      C1127   1.488       .  S
C1122      C1123   1.407       .  A
C1123      C1124   1.398       .  A
C1123      F1128   1.357       .  S
C1124      C1125   1.403       .  A
C1124      H1129   1.083       .  S
C1125      C1126   1.406   1_545  A
C1126      F1130   1.357       .  S
C1127      C1132   1.408       .  A
C1127      C1136   1.406       .  A
C1132      C1133   1.400       .  A
C1132      F1137   1.357       .  S
C1133      C1134   1.403       .  A
C1133      H1138   1.083       .  S
C1134      C1135   1.406       .  A
C1135      C1136   1.400       .  A
C1135      F1139   1.358       .  S
C1136      H1140   1.083   1_545  S
C1141      C1142   1.401       .  A
C1141      C1146   1.398       .  A
C1141      H1151   1.083       .  S
C1142      C1147   1.489       .  S
C1142      C1143   1.410       .  A
C1143      C1144   1.403       .  A
C1143      F1148   1.358       .  S
C1144      C1145   1.407       .  A
C1144      H1149   1.083       .  S
C1145      C1146   1.413       .  A
C1146      F1150   1.357       .  S
C1147      C1152   1.407       .  A
C1147      C1156   1.409       .  A
C1152      C1153   1.397       .  A
C1152      F1157   1.357       .  S
C1153      C1154   1.402       .  A
C1153      H1158   1.083       .  S
C1154      C1155   1.403       .  A
C1155      C1156   1.401       .  A
C1155      F1159   1.358       .  S
C1156      H1160   1.083       .  S
C1161      C1162   1.405       .  A
C1161      C1166   1.400       .  A
C1161      H1171   1.083       .  S
C1162      C1167   1.487       .  S
C1162      C1163   1.410       .  A
C1163      C1164   1.399       .  A
C1163      F1168   1.357       .  S
C1164      C1165   1.400       .  A
C1164      H1169   1.083       .  S
C1165      C1166   1.405       .  A
C1166      F1170   1.358       .  S
C1167      C1172   1.410       .  A
C1167      C1176   1.405       .  A
C1172      C1173   1.404       .  A
C1172      F1177   1.357       .  S
C1173      C1174   1.404       .  A
C1173      H1178   1.083       .  S
C1174      C1175   1.404       .  A
C1175      C1176   1.393       .  A
C1175      F1179   1.358       .  S
C1176      H1180   1.083       .  S
C1181      C1182   1.401       .  A
C1181      C1186   1.394       .  A
C1181      H1191   1.083       .  S
C1182      C1187   1.484       .  S
C1182      C1183   1.410       .  A
C1183      C1184   1.404       .  A
C1183      F1188   1.357       .  S
C1184      C1185   1.403       .  A
C1184      H1189   1.083       .  S
C1185      C1186   1.407       .  A
C1186      F1190   1.358       .  S
C1187      C1192   1.404       .  A
C1187      C1196   1.406       .  A
C1192      C1193   1.397       .  A
C1192      F1197   1.357       .  S
C1193      C1194   1.409       .  A
C1193      H1198   1.083       .  S
C1194      C1195   1.408       .  A
C1195      C1196   1.400       .  A
C1195      F1199   1.357       .  S
C1196      H1200   1.083       .  S
C1201      C1202   1.405       .  A
C1201      C1206   1.399       .  A
C1201      H1211   1.083       .  S
C1202      C1207   1.484       .  S
C1202      C1203   1.409       .  A
C1203      C1204   1.394       .  A
C1203      F1208   1.358       .  S
C1204      C1205   1.402       .  A
C1204      H1209   1.084       .  S
C1205      C1206   1.406       .  A
C1206      F1210   1.357       .  S
C1207      C1212   1.411       .  A
C1207      C1216   1.405       .  A
C1212      C1213   1.400       .  A
C1212      F1217   1.357       .  S
C1213      C1214   1.400       .  A
C1213      H1218   1.083       .  S
C1214      C1215   1.401       .  A
C1215      C1216   1.392       .  A
C1215      F1219   1.358       .  S
C1216      H1220   1.083       .  S
C1221      C1222   1.399       .  A
C1221      C1226   1.393       .  A
C1221      H1231   1.084       .  S
C1222      C1227   1.469       .  S
C1222      C1223   1.405       .  A
C1223      C1224   1.391       .  A
C1223      F1228   1.358       .  S
C1224      C1225   1.403       .  A
C1224      H1229   1.080       .  S
C1225      C1226   1.410       .  A
C1226      F1230   1.357       .  S
C1227      C1232   1.403       .  A
C1227      C1236   1.407       .  A
C1232      C1233   1.389       .  A
C1232      F1237   1.357       .  S
C1233      C1234   1.400       .  A
C1233      H1238   1.084       .  S
C1234      C1235   1.400       .  A
C1235      C1236   1.395       .  A
C1235      F1239   1.358       .  S
C1236      H1240   1.083       .  S
C1241      C1242   1.404       .  A
C1241      C1246   1.393       .  A
C1241      H1251   1.083       .  S
C1242      C1247   1.488       .  S
C1242      C1243   1.409       .  A
C1243      C1244   1.402       .  A
C1243      F1248   1.357       .  S
C1244      C1245   1.405       .  A
C1244      H1249   1.083       .  S
C1245      C1246   1.406       .  A
C1246      F1250   1.356       .  S
C1247      C1252   1.409       .  A
C1247      C1256   1.405       .  A
C1252      C1253   1.395       .  A
C1252      F1257   1.358       .  S
C1253      C1254   1.405       .  A
C1253      H1258   1.083       .  S
C1254      C1255   1.410       .  A
C1255      C1256   1.401       .  A
C1255      F1259   1.357       .  S
C1256      H1260   1.083       .  S
C1261      C1262   1.404       .  A
C1261      C1266   1.398       .  A
C1261      H1271   1.083       .  S
C1262      C1267   1.480       .  S
C1262      C1263   1.403       .  A
C1263      C1264   1.399       .  A
C1263      F1268   1.357       .  S
C1264      C1265   1.410       .  A
C1264      H1269   1.083       .  S
C1265      C1266   1.410       .  A
C1266      F1270   1.357       .  S
C1267      C1272   1.404       .  A
C1267      C1276   1.405       .  A
C1272      C1273   1.396       .  A
C1272      F1277   1.357       .  S
C1273      C1274   1.403       .  A
C1273      H1278   1.083       .  S
C1274      C1275   1.407       .  A
C1275      C1276   1.401       .  A
C1275      F1279   1.357       .  S
C1276      H1280   1.083       .  S
C1281      C1282   1.401       .  A
C1281      C1286   1.400       .  A
C1281      H1291   1.083       .  S
C1282      C1287   1.485       .  S
C1282      C1283   1.406       .  A
C1283      C1284   1.404       .  A
C1283      F1288   1.357       .  S
C1284      C1285   1.411       .  A
C1284      H1289   1.083       .  S
C1285      C1286   1.414       .  A
C1286      F1290   1.357       .  S
C1287      C1292   1.404       .  A
C1287      C1296   1.406       .  A
C1292      C1293   1.399       .  A
C1292      F1297   1.358       .  S
C1293      C1294   1.406       .  A
C1293      H1298   1.083       .  S
C1294      C1295   1.408       .  A
C1295      C1296   1.406       .  A
C1295      F1299   1.357       .  S
C1296      H1300   1.083       .  S
C1301      C1302   1.402       .  A
C1301      C1306   1.394       .  A
C1301      H1311   1.083       .  S
C1302      C1307   1.467       .  S
C1302      C1303   1.406       .  A
C1303      C1304   1.390       .  A
C1303      F1308   1.358       .  S
C1304      C1305   1.398       .  A
C1304      H1309   1.084       .  S
C1305      C1306   1.405       .  A
C1306      F1310   1.357       .  S
C1307      C1312   1.407       .  A
C1307      C1316   1.402       .  A
C1312      C1313   1.393       .  A
C1312      F1317   1.358       .  S
C1313      C1314   1.397       .  A
C1313      H1318   1.084       .  S
C1314      C1315   1.401       .  A
C1315      C1316   1.393       .  A
C1315      F1319   1.358       .  S
C1316      H1320   1.083       .  S
C1321      C1322   1.407       .  A
C1321      C1326   1.400       .  A
C1321      H1331   1.083       .  S
C1322      C1327   1.495       .  S
C1322      C1323   1.410       .  A
C1323      C1324   1.404       .  A
C1323      F1328   1.357       .  S
C1324      C1325   1.406       .  A
C1324      H1329   1.083       .  S
C1325      C1326   1.406       .  A
C1326      F1330   1.357       .  S
C1327      C1332   1.408       .  A
C1327      C1336   1.409       .  A
C1332      C1333   1.397       .  A
C1332      F1337   1.357       .  S
C1333      C1334   1.404       .  A
C1333      H1338   1.083       .  S
C1334      C1335   1.407       .  A
C1335      C1336   1.405       .  A
C1335      F1339   1.357       .  S
C1336      H1340   1.083       .  S
C1341      C1342   1.403       .  A
C1341      C1346   1.395       .  A
C1341      H1351   1.083       .  S
C1342      C1347   1.475       .  S
C1342      C1343   1.407       .  A
C1343      C1344   1.395       .  A
C1343      F1348   1.357       .  S
C1344      C1345   1.399       .  A
C1344      H1349   1.083       .  S
C1345      C1346   1.404       .  A
C1346      F1350   1.358       .  S
C1347      C1352   1.403       .  A
C1347      C1356   1.405       .  A
C1352      C1353   1.388       .  A
C1352      F1357   1.358       .  S
C1353      C1354   1.405       .  A
C1353      H1358   1.083       .  S
C1354      C1355   1.409       .  A
C1355      C1356   1.401       .  A
C1355      F1359   1.357       .  S
C1356      H1360   1.083       .  S
C1361      C1362   1.404       .  A
C1361      C1366   1.401       .  A
C1361      H1371   1.083       .  S
C1362      C1367   1.470       .  S
C1362      C1363   1.403       .  A
C1363      C1364   1.389       .  A
C1363      F1368   1.358       .  S
C1364      C1365   1.400       .  A
C1364      H1369   1.084       .  S
C1365      C1366   1.405       .  A
C1366      F1370   1.357       .  S
C1367      C1372   1.403       .  A
C1367      C1376   1.399       .  A
C1372      C1373   1.398       .  A
C1372      F1377   1.358       .  S
C1373      C1374   1.409       .  A
C1373      H1378   1.083       .  S
C1374      C1375   1.411       .  A
C1375      C1376   1.392       .  A
C1375      F1379   1.357       .  S
C1376      H1380   1.084       .  S
C1381      C1382   1.407   1_556  A
C1381      C1386   1.401       .  A
C1381      H1391   1.083       .  S
C1382      C1387   1.482       .  S
C1382      C1383   1.406       .  A
C1383      C1384   1.391       .  A
C1383      F1388   1.358       .  S
C1384      C1385   1.401   1_554  A
C1384      H1389   1.083       .  S
C1385      C1386   1.406       .  A
C1386      F1390   1.356       .  S
C1387      C1392   1.409       .  A
C1387      C1396   1.406   1_554  A
C1392      C1393   1.400       .  A
C1392      F1397   1.357       .  S
C1393      C1394   1.402       .  A
C1393      H1398   1.083       .  S
C1394      C1395   1.400   1_554  A
C1395      C1396   1.393       .  A
C1395      F1399   1.358       .  S
C1396      H1400   1.083       .  S
C1401      C1402   1.406       .  A
C1401      C1406   1.397       .  A
C1401      H1411   1.083       .  S
C1402      C1407   1.491       .  S
C1402      C1403   1.411       .  A
C1403      C1404   1.404       .  A
C1403      F1408   1.357       .  S
C1404      C1405   1.403       .  A
C1404      H1409   1.083       .  S
C1405      C1406   1.403       .  A
C1406      F1410   1.358       .  S
C1407      C1412   1.409       .  A
C1407      C1416   1.403       .  A
C1412      C1413   1.403       .  A
C1412      F1417   1.357       .  S
C1413      C1414   1.409       .  A
C1413      H1418   1.083       .  S
C1414      C1415   1.414       .  A
C1415      C1416   1.399       .  A
C1415      F1419   1.357       .  S
C1416      H1420   1.083       .  S
C1421      C1422   1.404       .  A
C1421      C1426   1.396       .  A
C1421      H1431   1.083       .  S
C1422      C1427   1.481       .  S
C1422      C1423   1.407       .  A
C1423      C1424   1.401       .  A
C1423      F1428   1.357       .  S
C1424      C1425   1.404       .  A
C1424      H1429   1.083       .  S
C1425      C1426   1.405       .  A
C1426      F1430   1.357       .  S
C1427      C1432   1.407       .  A
C1427      C1436   1.404       .  A
C1432      C1433   1.402       .  A
C1432      F1437   1.358       .  S
C1433      C1434   1.407       .  A
C1433      H1438   1.083       .  S
C1434      C1435   1.404       .  A
C1435      C1436   1.396       .  A
C1435      F1439   1.357       .  S
C1436      H1440   1.083       .  S
C1441      C1442   1.404   1_556  A
C1441      C1446   1.399       .  A
C1441      H1451   1.083       .  S
C1442      C1447   1.475       .  S
C1442      C1443   1.405       .  A
C1443      C1444   1.394       .  A
C1443      F1448   1.358       .  S
C1444      C1445   1.401       .  A
C1444      H1449   1.083       .  S
C1445      C1446   1.405   1_554  A
C1446      F1450   1.357       .  S
C1447      C1452   1.406       .  A
C1447      C1456   1.403   1_554  A
C1452      C1453   1.398       .  A
C1452      F1457   1.357       .  S
C1453      C1454   1.403       .  A
C1453      H1458   1.083       .  S
C1454      C1455   1.404   1_554  A
C1455      C1456   1.394       .  A
C1455      F1459   1.358       .  S
C1456      H1460   1.083       .  S
C1461      C1462   1.404       .  A
C1461      C1466   1.398       .  A
C1461      H1471   1.083       .  S
C1462      C1467   1.485       .  S
C1462      C1463   1.409       .  A
C1463      C1464   1.396       .  A
C1463      F1468   1.358       .  S
C1464      C1465   1.404       .  A
C1464      H1469   1.083       .  S
C1465      C1466   1.410       .  A
C1466      F1470   1.358       .  S
C1467      C1472   1.409       .  A
C1467      C1476   1.404       .  A
C1472      C1473   1.397       .  A
C1472      F1477   1.357       .  S
C1473      C1474   1.403       .  A
C1473      H1478   1.083       .  S
C1474      C1475   1.407       .  A
C1475      C1476   1.395       .  A
C1475      F1479   1.356       .  S
C1476      H1480   1.083       .  S
C1481      C1482   1.407       .  A
C1481      C1486   1.403       .  A
C1481      H1491   1.083       .  S
C1482      C1487   1.480       .  S
C1482      C1483   1.403       .  A
C1483      C1484   1.394       .  A
C1483      F1488   1.358       .  S
C1484      C1485   1.404       .  A
C1484      H1489   1.083       .  S
C1485      C1486   1.407       .  A
C1486      F1490   1.357       .  S
C1487      C1492   1.403       .  A
C1487      C1496   1.405       .  A
C1492      C1493   1.395       .  A
C1492      F1497   1.358       .  S
C1493      C1494   1.408       .  A
C1493      H1498   1.083       .  S
C1494      C1495   1.408       .  A
C1495      C1496   1.402       .  A
C1495      F1499   1.357       .  S
C1496      H1500   1.083       .  S
C1501      C1502   1.398       .  A
C1501      C1506   1.396       .  A
C1501      H1511   1.083       .  S
C1502      C1507   1.455       .  S
C1502      C1503   1.397       .  A
C1503      C1504   1.387       .  A
C1503      F1508   1.358       .  S
C1504      C1505   1.407       .  A
C1504      H1509   1.083       .  S
C1505      C1506   1.411       .  A
C1506      F1510   1.358       .  S
C1507      C1512   1.400       .  A
C1507      C1516   1.397       .  A
C1512      C1513   1.394       .  A
C1512      F1517   1.357       .  S
C1513      C1514   1.403       .  A
C1513      H1518   1.082       .  S
C1514      C1515   1.408       .  A
C1515      C1516   1.389       .  A
C1515      F1519   1.358       .  S
C1516      H1520   1.084       .  S
C1521      C1522   1.407       .  A
C1521      C1526   1.392       .  A
C1521      H1531   1.082       .  S
C1522      C1527   1.481       .  S
C1522      C1523   1.410       .  A
C1523      C1524   1.396       .  A
C1523      F1528   1.357       .  S
C1524      C1525   1.399       .  A
C1524      H1529   1.083       .  S
C1525      C1526   1.399       .  A
C1526      F1530   1.358       .  S
C1527      C1532   1.408       .  A
C1527      C1536   1.405       .  A
C1532      C1533   1.395       .  A
C1532      F1537   1.357       .  S
C1533      C1534   1.402       .  A
C1533      H1538   1.082       .  S
C1534      C1535   1.404       .  A
C1535      C1536   1.392       .  A
C1535      F1539   1.358       .  S
C1536      H1540   1.082       .  S
C1541      C1542   1.403       .  A
C1541      C1546   1.398       .  A
C1541      H1551   1.083       .  S
C1542      C1547   1.496       .  S
C1542      C1543   1.412       .  A
C1543      C1544   1.412       .  A
C1543      F1548   1.357       .  S
C1544      C1545   1.407       .  A
C1544      H1549   1.083       .  S
C1545      C1546   1.407       .  A
C1546      F1550   1.357       .  S
C1547      C1552   1.405       .  A
C1547      C1556   1.408       .  A
C1552      C1553   1.400       .  A
C1552      F1557   1.358       .  S
C1553      C1554   1.411       .  A
C1553      H1558   1.083       .  S
C1554      C1555   1.412       .  A
C1555      C1556   1.409       .  A
C1555      F1559   1.357       .  S
C1556      H1560   1.083       .  S
C1561      C1562   1.404       .  A
C1561      C1566   1.402       .  A
C1561      H1571   1.083       .  S
C1562      C1567   1.481       .  S
C1562      C1563   1.407       .  A
C1563      C1564   1.394       .  A
C1563      F1568   1.358       .  S
C1564      C1565   1.403       .  A
C1564      H1569   1.084       .  S
C1565      C1566   1.406       .  A
C1566      F1570   1.356       .  S
C1567      C1572   1.409       .  A
C1567      C1576   1.401       .  A
C1572      C1573   1.403       .  A
C1572      F1577   1.357       .  S
C1573      C1574   1.404       .  A
C1573      H1578   1.083       .  S
C1574      C1575   1.406       .  A
C1575      C1576   1.394       .  A
C1575      F1579   1.358       .  S
C1576      H1580   1.083       .  S
C1581      C1582   1.405       .  A
C1581      C1586   1.393       .  A
C1581      H1591   1.083       .  S
C1582      C1587   1.479       .  S
C1582      C1583   1.407       .  A
C1583      C1584   1.396       .  A
C1583      F1588   1.358       .  S
C1584      C1585   1.404       .  A
C1584      H1589   1.084       .  S
C1585      C1586   1.404       .  A
C1586      F1590   1.358       .  S
C1587      C1592   1.408       .  A
C1587      C1596   1.403       .  A
C1592      C1593   1.397       .  A
C1592      F1597   1.358       .  S
C1593      C1594   1.403       .  A
C1593      H1598   1.083       .  S
C1594      C1595   1.405       .  A
C1595      C1596   1.392       .  A
C1595      F1599   1.358       .  S
C1596      H1600   1.083       .  S
C1601      C1602   1.401       .  A
C1601      C1606   1.392       .  A
C1601      H1611   1.084       .  S
C1602      C1607   1.465       .  S
C1602      C1603   1.404       .  A
C1603      C1604   1.397       .  A
C1603      F1608   1.357       .  S
C1604      C1605   1.402       .  A
C1604      H1609   1.083       .  S
C1605      C1606   1.402       .  A
C1606      F1610   1.358       .  S
C1607      C1612   1.401       .  A
C1607      C1616   1.397       .  A
C1612      C1613   1.400       .  A
C1612      F1617   1.357       .  S
C1613      C1614   1.410       .  A
C1613      H1618   1.083       .  S
C1614      C1615   1.411       .  A
C1615      C1616   1.388       .  A
C1615      F1619   1.358       .  S
C1616      H1620   1.084       .  S
C1621      C1622   1.406       .  A
C1621      C1626   1.399       .  A
C1621      H1631   1.083       .  S
C1622      C1627   1.490       .  S
C1622      C1623   1.409       .  A
C1623      C1624   1.402       .  A
C1623      F1628   1.357       .  S
C1624      C1625   1.403       .  A
C1624      H1629   1.083       .  S
C1625      C1626   1.405       .  A
C1626      F1630   1.358       .  S
C1627      C1632   1.405       .  A
C1627      C1636   1.407       .  A
C1632      C1633   1.399       .  A
C1632      F1637   1.358       .  S
C1633      C1634   1.411       .  A
C1633      H1638   1.083       .  S
C1634      C1635   1.409       .  A
C1635      C1636   1.404       .  A
C1635      F1639   1.357       .  S
C1636      H1640   1.083       .  S
C1641      C1642   1.406       .  A
C1641      C1646   1.402       .  A
C1641      H1651   1.083       .  S
C1642      C1647   1.496       .  S
C1642      C1643   1.410       .  A
C1643      C1644   1.402       .  A
C1643      F1648   1.357       .  S
C1644      C1645   1.404       .  A
C1644      H1649   1.080       .  S
C1645      C1646   1.409       .  A
C1646      F1650   1.357       .  S
C1647      C1652   1.411       .  A
C1647      C1656   1.408       .  A
C1652      C1653   1.403       .  A
C1652      F1657   1.357       .  S
C1653      C1654   1.405       .  A
C1653      H1658   1.083       .  S
C1654      C1655   1.403       .  A
C1655      C1656   1.400       .  A
C1655      F1659   1.357       .  S
C1656      H1660   1.083       .  S
C1661      C1662   1.399       .  A
C1661      C1666   1.390       .  A
C1661      H1671   1.084       .  S
C1662      C1667   1.472       .  S
C1662      C1663   1.407       .  A
C1663      C1664   1.401       .  A
C1663      F1668   1.357       .  S
C1664      C1665   1.403       .  A
C1664      H1669   1.083       .  S
C1665      C1666   1.406       .  A
C1666      F1670   1.358       .  S
C1667      C1672   1.406       .  A
C1667      C1676   1.397       .  A
C1672      C1673   1.398       .  A
C1672      F1677   1.357       .  S
C1673      C1674   1.405       .  A
C1673      H1678   1.083       .  S
C1674      C1675   1.415       .  A
C1675      C1676   1.394       .  A
C1675      F1679   1.358       .  S
C1676      H1680   1.084       .  S
C1681      C1682   1.402       .  A
C1681      C1686   1.395       .  A
C1681      H1691   1.083       .  S
C1682      C1687   1.481       .  S
C1682      C1683   1.408       .  A
C1683      C1684   1.396       .  A
C1683      F1688   1.358       .  S
C1684      C1685   1.405       .  A
C1684      H1689   1.083       .  S
C1685      C1686   1.410       .  A
C1686      F1690   1.358       .  S
C1687      C1692   1.408       .  A
C1687      C1696   1.405       .  A
C1692      C1693   1.394       .  A
C1692      F1697   1.358       .  S
C1693      C1694   1.401       .  A
C1693      H1698   1.083       .  S
C1694      C1695   1.403       .  A
C1695      C1696   1.396       .  A
C1695      F1699   1.357       .  S
C1696      H1700   1.083       .  S
C1701      C1702   1.406       .  A
C1701      C1706   1.397       .  A
C1701      H1711   1.083       .  S
C1702      C1707   1.493       .  S
C1702      C1703   1.410       .  A
C1703      C1704   1.404       .  A
C1703      F1708   1.357   1_455  S
C1704      C1705   1.406       .  A
C1704      H1709   1.083   1_455  S
C1705      C1706   1.405       .  A
C1706      F1710   1.358       .  S
C1707      C1712   1.411       .  A
C1707      C1716   1.405   1_455  A
C1712      C1713   1.406       .  A
C1712      F1717   1.357       .  S
C1713      C1714   1.405       .  A
C1713      H1718   1.082       .  S
C1714      C1715   1.406   1_455  A
C1715      C1716   1.395       .  A
C1715      F1719   1.357       .  S
C1716      H1720   1.083       .  S
C1721      C1722   1.408       .  A
C1721      C1726   1.402       .  A
C1721      H1731   1.083       .  S
C1722      C1727   1.494       .  S
C1722      C1723   1.409   1_655  A
C1723      C1724   1.401       .  A
C1723      F1728   1.357       .  S
C1724      C1725   1.404   1_455  A
C1724      H1729   1.083       .  S
C1725      C1726   1.407       .  A
C1726      F1730   1.356       .  S
C1727      C1732   1.410       .  A
C1727      C1736   1.408       .  A
C1732      C1733   1.400       .  A
C1732      F1737   1.357   1_655  S
C1733      C1734   1.402       .  A
C1733      H1738   1.083   1_655  S
C1734      C1735   1.405       .  A
C1735      C1736   1.402       .  A
C1735      F1739   1.357       .  S
C1736      H1740   1.083       .  S
C1741      C1742   1.405       .  A
C1741      C1746   1.404       .  A
C1741      H1751   1.083       .  S
C1742      C1747   1.475       .  S
C1742      C1743   1.401       .  A
C1743      C1744   1.391       .  A
C1743      F1748   1.358       .  S
C1744      C1745   1.404       .  A
C1744      H1749   1.084       .  S
C1745      C1746   1.408       .  A
C1746      F1750   1.356       .  S
C1747      C1752   1.401       .  A
C1747      C1756   1.404       .  A
C1752      C1753   1.393       .  A
C1752      F1757   1.358       .  S
C1753      C1754   1.406       .  A
C1753      H1758   1.083       .  S
C1754      C1755   1.409       .  A
C1755      C1756   1.403       .  A
C1755      F1759   1.357       .  S
C1756      H1760   1.083       .  S
C1761      C1762   1.406       .  A
C1761      C1766   1.398       .  A
C1761      H1771   1.083       .  S
C1762      C1767   1.491       .  S
C1762      C1763   1.410       .  A
C1763      C1764   1.404       .  A
C1763      F1768   1.357       .  S
C1764      C1765   1.405       .  A
C1764      H1769   1.083       .  S
C1765      C1766   1.405       .  A
C1766      F1770   1.356       .  S
C1767      C1772   1.410       .  A
C1767      C1776   1.407       .  A
C1772      C1773   1.403       .  A
C1772      F1777   1.357       .  S
C1773      C1774   1.404       .  A
C1773      H1778   1.083       .  S
C1774      C1775   1.403       .  A
C1775      C1776   1.398       .  A
C1775      F1779   1.357       .  S
C1776      H1780   1.083       .  S
C1781      C1782   1.400       .  A
C1781      C1786   1.401       .  A
C1781      H1791   1.083       .  S
C1782      C1787   1.488       .  S
C1782      C1783   1.409       .  A
C1783      C1784   1.405       .  A
C1783      F1788   1.357       .  S
C1784      C1785   1.405       .  A
C1784      H1789   1.083       .  S
C1785      C1786   1.416       .  A
C1786      F1790   1.358       .  S
C1787      C1792   1.404       .  A
C1787      C1796   1.407       .  A
C1792      C1793   1.397       .  A
C1792      F1797   1.357       .  S
C1793      C1794   1.405       .  A
C1793      H1798   1.083       .  S
C1794      C1795   1.408       .  A
C1795      C1796   1.407       .  A
C1795      F1799   1.357       .  S
C1796      H1800   1.083       .  S
C1801      C1802   1.405       .  A
C1801      C1806   1.402       .  A
C1801      H1811   1.083       .  S
C1802      C1807   1.486       .  S
C1802      C1803   1.408       .  A
C1803      C1804   1.401       .  A
C1803      F1808   1.357       .  S
C1804      C1805   1.401       .  A
C1804      H1809   1.083       .  S
C1805      C1806   1.404       .  A
C1806      F1810   1.357       .  S
C1807      C1812   1.409       .  A
C1807      C1816   1.401       .  A
C1812      C1813   1.405       .  A
C1812      F1817   1.357       .  S
C1813      C1814   1.405       .  A
C1813      H1818   1.083       .  S
C1814      C1815   1.411       .  A
C1815      C1816   1.399       .  A
C1815      F1819   1.358       .  S
C1816      H1820   1.083       .  S
C1821      C1822   1.408       .  A
C1821      C1826   1.402       .  A
C1821      H1831   1.083       .  S
C1822      C1827   1.499       .  S
C1822      C1823   1.413       .  A
C1823      C1824   1.404       .  A
C1823      F1828   1.357       .  S
C1824      C1825   1.403       .  A
C1824      H1829   1.083       .  S
C1825      C1826   1.405       .  A
C1826      F1830   1.357       .  S
C1827      C1832   1.411       .  A
C1827      C1836   1.406       .  A
C1832      C1833   1.406       .  A
C1832      F1837   1.357       .  S
C1833      C1834   1.409       .  A
C1833      H1838   1.083       .  S
C1834      C1835   1.411       .  A
C1835      C1836   1.400       .  A
C1835      F1839   1.357       .  S
C1836      H1840   1.083       .  S
C1841      C1842   1.409       .  A
C1841      C1846   1.405       .  A
C1841      H1851   1.083       .  S
C1842      C1847   1.495       .  S
C1842      C1843   1.406       .  A
C1843      C1844   1.398       .  A
C1843      F1848   1.357       .  S
C1844      C1845   1.410       .  A
C1844      H1849   1.083       .  S
C1845      C1846   1.410       .  A
C1846      F1850   1.357       .  S
C1847      C1852   1.413       .  A
C1847      C1856   1.407       .  A
C1852      C1853   1.402       .  A
C1852      F1857   1.357       .  S
C1853      C1854   1.401       .  A
C1853      H1858   1.083       .  S
C1854      C1855   1.406       .  A
C1855      C1856   1.400       .  A
C1855      F1859   1.358       .  S
C1856      H1860   1.083       .  S
C1861      C1862   1.412       .  A
C1861      C1866   1.410       .  A
C1861      H1871   1.082       .  S
C1862      C1867   1.514       .  S
C1862      C1863   1.412       .  A
C1863      C1864   1.406       .  A
C1863      F1868   1.357       .  S
C1864      C1865   1.411       .  A
C1864      H1869   1.083       .  S
C1865      C1866   1.412       .  A
C1866      F1870   1.357       .  S
C1867      C1872   1.411       .  A
C1867      C1876   1.414       .  A
C1872      C1873   1.403       .  A
C1872      F1877   1.357       .  S
C1873      C1874   1.408       .  A
C1873      H1878   1.083       .  S
C1874      C1875   1.410       .  A
C1875      C1876   1.411       .  A
C1875      F1879   1.356       .  S
C1876      H1880   1.082       .  S
C1881      C1882   1.408       .  A
C1881      C1886   1.409       .  A
C1881      H1891   1.083       .  S
C1882      C1887   1.494       .  S
C1882      C1883   1.408       .  A
C1883      C1884   1.398       .  A
C1883      F1888   1.358       .  S
C1884      C1885   1.403       .  A
C1884      H1889   1.084       .  S
C1885      C1886   1.408       .  A
C1886      F1890   1.357       .  S
C1887      C1892   1.405       .  A
C1887      C1896   1.408       .  A
C1892      C1893   1.395       .  A
C1892      F1897   1.358       .  S
C1893      C1894   1.408       .  A
C1893      H1898   1.083       .  S
C1894      C1895   1.414       .  A
C1895      C1896   1.412       .  A
C1895      F1899   1.357       .  S
C1896      H1900   1.083       .  S
C1901      C1902   1.408       .  A
C1901      C1906   1.408       .  A
C1901      H1911   1.083       .  S
C1902      C1907   1.497       .  S
C1902      C1903   1.407       .  A
C1903      C1904   1.399       .  A
C1903      F1908   1.358       .  S
C1904      C1905   1.410       .  A
C1904      H1909   1.083       .  S
C1905      C1906   1.411       .  A
C1906      F1910   1.357       .  S
C1907      C1912   1.412       .  A
C1907      C1916   1.405       .  A
C1912      C1913   1.409       .  A
C1912      F1917   1.357       .  S
C1913      C1914   1.405       .  A
C1913      H1918   1.083       .  S
C1914      C1915   1.407       .  A
C1915      C1916   1.397       .  A
C1915      F1919   1.358       .  S
C1916      H1920   1.083       .  S
C1921      C1922   1.405       .  A
C1921      C1926   1.406       .  A
C1921      H1931   1.083       .  S
C1922      C1927   1.480       .  S
C1922      C1923   1.403       .  A
C1923      C1924   1.389       .  A
C1923      F1928   1.358       .  S
C1924      C1925   1.407       .  A
C1924      H1929   1.083       .  S
C1925      C1926   1.412       .  A
C1926      F1930   1.357       .  S
C1927      C1932   1.406       .  A
C1927      C1936   1.404       .  A
C1932      C1933   1.401       .  A
C1932      F1937   1.357       .  S
C1933      C1934   1.404       .  A
C1933      H1938   1.083       .  S
C1934      C1935   1.404       .  A
C1935      C1936   1.394       .  A
C1935      F1939   1.358       .  S
C1936      H1940   1.084       .  S
C1941      C1942   1.401       .  A
C1941      C1946   1.391       .  A
C1941      H1951   1.084       .  S
C1942      C1947   1.474       .  S
C1942      C1943   1.407       .  A
C1943      C1944   1.401       .  A
C1943      F1948   1.357       .  S
C1944      C1945   1.403       .  A
C1944      H1949   1.083       .  S
C1945      C1946   1.403       .  A
C1946      F1950   1.358       .  S
C1947      C1952   1.408       .  A
C1947      C1956   1.399       .  A
C1952      C1953   1.398       .  A
C1952      F1957   1.358       .  S
C1953      C1954   1.401       .  A
C1953      H1958   1.083       .  S
C1954      C1955   1.409       .  A
C1955      C1956   1.394       .  A
C1955      F1959   1.358       .  S
C1956      H1960   1.083       .  S
C1961      C1962   1.404       .  A
C1961      C1966   1.395       .  A
C1961      H1971   1.083       .  S
C1962      C1967   1.479       .  S
C1962      C1963   1.407       .  A
C1963      C1964   1.398       .  A
C1963      F1968   1.358       .  S
C1964      C1965   1.404       .  A
C1964      H1969   1.084       .  S
C1965      C1966   1.405       .  A
C1966      F1970   1.357       .  S
C1967      C1972   1.405       .  A
C1967      C1976   1.405       .  A
C1972      C1973   1.392       .  A
C1972      F1977   1.358       .  S
C1973      C1974   1.402       .  A
C1973      H1978   1.084       .  S
C1974      C1975   1.407       .  A
C1975      C1976   1.400       .  A
C1975      F1979   1.356       .  S
C1976      H1980   1.083       .  S
C1981      C1982   1.403       .  A
C1981      C1986   1.396       .  A
C1981      H1991   1.083       .  S
C1982      C1987   1.481       .  S
C1982      C1983   1.406       .  A
C1983      C1984   1.400       .  A
C1983      F1988   1.357       .  S
C1984      C1985   1.407       .  A
C1984      H1989   1.083       .  S
C1985      C1986   1.409       .  A
C1986      F1990   1.358       .  S
C1987      C1992   1.408       .  A
C1987      C1996   1.402       .  A
C1992      C1993   1.400       .  A
C1992      F1997   1.357       .  S
C1993      C1994   1.404       .  A
C1993      H1998   1.082       .  S
C1994      C1995   1.409       .  A
C1995      C1996   1.396       .  A
C1995      F1999   1.358       .  S
C1996      H2000   1.083       .  S
C2001      C2002   1.408       .  A
C2001      C2006   1.404       .  A
C2001      H2011   1.083       .  S
C2002      C2007   1.489       .  S
C2002      C2003   1.404       .  A
C2003      C2004   1.400       .  A
C2003      F2008   1.357       .  S
C2004      C2005   1.409       .  A
C2004      H2009   1.083       .  S
C2005      C2006   1.409       .  A
C2006      F2010   1.358       .  S
C2007      C2012   1.411       .  A
C2007      C2016   1.402       .  A
C2012      C2013   1.406       .  A
C2012      F2017   1.357       .  S
C2013      C2014   1.404       .  A
C2013      H2018   1.083       .  S
C2014      C2015   1.407       .  A
C2015      C2016   1.397       .  A
C2015      F2019   1.358       .  S
C2016      H2020   1.083       .  S
