geometry optimzed in LAMMPS
_audit_creation_date              2020-11-30 
_audit_creation_method            'lammps2cif' 
_symmetry_space_group_name_H-M    'P1' 
_symmetry_Int_Tables_number       1 
_symmetry_cell_setting            triclinic 
loop_ 
_symmetry_equiv_pos_as_xyz 
  x,y,z 
_cell_length_a                    100.91281646789797 
_cell_length_b                    100.4273641768152 
_cell_length_c                    100.57174631590567 
_cell_angle_alpha                 89.86526100081494 
_cell_angle_beta                  90.03943590421737 
_cell_angle_gamma                 89.86788108536804 
loop_ 
_atom_site_label 
_atom_site_type_symbol 
_atom_site_fract_x 
_atom_site_fract_y 
_atom_site_fract_z 
_atom_site_charge 
N1          N  0.24095325  0.94185182  0.79429128    -0.27360
N2          N  0.24960738  0.93232262  0.79177455    -0.35210
C3          C  0.24966186  0.92981325  0.77868177     0.00980
C4          C  0.24046387  0.93808080  0.77266899     0.07010
C5          C  0.23525304  0.94574544  0.78283711    -0.06090
H6          H  0.25577839  0.92235591  0.77392401     0.07680
H7          H  0.22779278  0.95345918  0.78200761     0.08880
Cu8        Cu  0.26040928  0.92292290  0.80639629     0.44170
Cu9        Cu  0.23691169  0.94807469  0.81337730     0.41990
Cu10       Cu  0.25232065  0.92951268  0.84096053     0.43880
N11         N  0.26980297  0.91392486  0.82220735    -0.34740
N12         N  0.26684450  0.91591604  0.83486480    -0.29000
C13         C  0.27474185  0.90807391  0.84238823    -0.05100
C14         C  0.28304628  0.90103030  0.83397143     0.07120
C15         C  0.27962283  0.90494736  0.82130683     0.00910
H16         H  0.27449417  0.90757295  0.85313056     0.08570
H17         H  0.28385759  0.90142237  0.81207870     0.07650
N18         N  0.23793677  0.94439931  0.84325607    -0.36190
N19         N  0.23268440  0.95109654  0.83319997    -0.28370
C20         C  0.22390574  0.95998670  0.83785816    -0.03610
C21         C  0.22336650  0.95879674  0.85152825     0.05000
C22         C  0.23254147  0.94894059  0.85463932     0.03090
H23         H  0.21864965  0.96703546  0.83166234     0.08200
H24         H  0.23506422  0.94531491  0.86446050     0.07030
N25         N  0.17458064  0.00599685  0.94622848    -0.27360
N26         N  0.16620231  0.01572370  0.94886988    -0.35210
C27         C  0.16488398  0.01690132  0.96208445     0.00980
C28         C  0.17293958  0.00747402  0.96809282     0.07010
C29         C  0.17888629  0.00067030  0.95771009    -0.06090
H30         H  0.15820114  0.02381301  0.96688508     0.07680
H31         H  0.18577145  0.99242623  0.95842479     0.08880
Cu32       Cu  0.15664754  0.02633002  0.93424437     0.44170
Cu33       Cu  0.17924359  0.00066779  0.92702900     0.41990
Cu34       Cu  0.16270251  0.01845183  0.89949542     0.43880
N35         N  0.14690693  0.03528012  0.91866566    -0.34740
N36         N  0.14863876  0.03242651  0.90594619    -0.29000
C37         C  0.14024720  0.04003464  0.89870445    -0.05100
C38         C  0.13313310  0.04803851  0.90738439     0.07120
C39         C  0.13759049  0.04472799  0.91989018     0.00910
H40         H  0.13950830  0.03988763  0.88797501     0.08570
H41         H  0.13426964  0.04886008  0.92924211     0.07650
N42         N  0.17770253  0.00414697  0.89713571    -0.36190
N43         N  0.18337952  0.99779060  0.90718006    -0.28370
C44         C  0.19244420  0.98921293  0.90249651    -0.03610
C45         C  0.19277058  0.99027035  0.88880892     0.05000
C46         C  0.18314985  0.99971518  0.88573022     0.03090
H47         H  0.19797532  0.98239612  0.90870323     0.08200
H48         H  0.18032458  0.00310134  0.87590714     0.07030
N49         N  0.92550695  0.20218001  0.73965419    -0.27360
N50         N  0.91651665  0.20471444  0.73045326    -0.35210
C51         C  0.91449722  0.21789951  0.72972987     0.00980
C52         C  0.92261407  0.22393116  0.73897676     0.07010
C53         C  0.92956894  0.21371945  0.74503988    -0.06090
H54         H  0.90729839  0.22269308  0.72332452     0.07680
H55         H  0.93655386  0.21455399  0.75315943     0.08880
Cu56       Cu  0.90670163  0.18997266  0.72029920     0.44170
Cu57       Cu  0.93051243  0.18296181  0.74486418     0.41990
Cu58       Cu  0.91279437  0.15525168  0.72849426     0.43880
N59         N  0.89667239  0.17436601  0.71175549    -0.34740
N60         N  0.89847173  0.16163567  0.71467861    -0.29000
C61         C  0.88993778  0.15437312  0.70730914    -0.05100
C62         C  0.88254952  0.16305795  0.69947816     0.07120
C63         C  0.88714771  0.17557283  0.70252514     0.00910
H64         H  0.88924356  0.14362800  0.70752990     0.08570
H65         H  0.88377681  0.18492964  0.69835818     0.07650
N66         N  0.92795100  0.15294925  0.74268233    -0.36190
N67         N  0.93403453  0.16304914  0.74848124    -0.28370
C68         C  0.94305009  0.15839040  0.75713393    -0.03610
C69         C  0.94292013  0.14463190  0.75677324     0.05000
C70         C  0.93310437  0.14152850  0.74755732     0.03090
H71         H  0.94902557  0.16468858  0.76343479     0.08200
H72         H  0.92996632  0.13168504  0.74457569     0.07030
N73         N  0.99096554  0.05081040  0.80724035    -0.27360
N74         N  0.00069417  0.04816480  0.81561418    -0.35210
C75         C  0.00185562  0.03492271  0.81704848     0.00980
C76         C  0.99237594  0.02898445  0.80914317     0.07010
C77         C  0.98552156  0.03931808  0.80317223    -0.06090
H78         H  0.00881669  0.03000677  0.82362356     0.07680
H79         H  0.97716141  0.03854975  0.79647965     0.08880
Cu80       Cu  0.01114853  0.06288733  0.82511779     0.44170
Cu81       Cu  0.98584499  0.07004533  0.80222236     0.41990
Cu82       Cu  0.00303274  0.09777136  0.81877850     0.43880
N83         N  0.02028178  0.07864496  0.83435033    -0.34740
N84         N  0.01759711  0.09138331  0.83228284    -0.29000
C85         C  0.02553001  0.09871128  0.84022569    -0.05100
C86         C  0.03356562  0.09008062  0.84747189     0.07120
C87         C  0.02982475  0.07750170  0.84355386     0.00910
H88         H  0.02532774  0.10946331  0.84083938     0.08570
H89         H  0.03373190  0.06813215  0.84718934     0.07650
N90         N  0.98813208  0.10004881  0.80436595    -0.36190
N91         N  0.98221119  0.08990930  0.79847649    -0.28370
C92         C  0.97335373  0.09450783  0.78963085    -0.03610
C93         C  0.97343083  0.10826852  0.78995791     0.05000
C94         C  0.98304553  0.11143886  0.79935644     0.03090
H95         H  0.96751763  0.08817385  0.78323416     0.08200
H96         H  0.98608580  0.12130321  0.80237235     0.07030
C97         C  0.08052543  0.10723689  0.90916768     0.03060
C98         C  0.08959181  0.09665349  0.91085223    -0.13090
C99         C  0.09100122  0.08667121  0.90111829     0.00560
C100        C  0.08246704  0.08674590  0.89008538    -0.11610
C101        C  0.07286151  0.09671046  0.88867321     0.03050
C102        C  0.07234933  0.10718421  0.89778119    -0.11030
H103        H  0.09546896  0.09594667  0.91982129     0.08650
H104        H  0.08320706  0.07906607  0.88257897     0.06180
H105        H  0.06524323  0.11508774  0.89604580     0.06030
N106        N  0.04610577  0.30313096  0.23976100    -0.27360
N107        N  0.05406985  0.30076924  0.22964571    -0.35210
C108        C  0.05563864  0.28759190  0.22824928     0.00980
C109        C  0.04816477  0.28131366  0.23789393     0.07010
C110        C  0.04230805  0.29146635  0.24511926    -0.06090
H111        H  0.06213275  0.28294134  0.22106258     0.07680
H112        H  0.03624254  0.29046788  0.25393113     0.08880
Cu113      Cu  0.06354296  0.31562767  0.21937396     0.44170
Cu114      Cu  0.04203795  0.32228132  0.24588673     0.41990
Cu115      Cu  0.05987355  0.35005459  0.22946526     0.43880
N116        N  0.07462980  0.33092693  0.21170844    -0.34740
N117        N  0.07380194  0.34353957  0.21538598    -0.29000
C118        C  0.08305671  0.35053109  0.20864239    -0.05100
C119        C  0.08990136  0.34177163  0.20046080     0.07120
C120        C  0.08422504  0.32952376  0.20261347     0.00910
H121        H  0.08461246  0.36114551  0.20952981     0.08570
H122        H  0.08693475  0.32020258  0.19796311     0.07650
N123        N  0.04510762  0.35231342  0.24401637    -0.36190
N124        N  0.03902262  0.34220153  0.24985341    -0.28370
C125        C  0.03019393  0.34686565  0.25866060    -0.03610
C126        C  0.03068422  0.36058841  0.25857078     0.05000
C127        C  0.04014455  0.36373972  0.24902402     0.03090
H128        H  0.02380280  0.34066349  0.26467829     0.08200
H129        H  0.04307189  0.37359872  0.24583216     0.07030
N130        N  0.98045142  0.45246429  0.30675678    -0.27360
N131        N  0.97262311  0.45524016  0.31687574    -0.35210
C132        C  0.97256344  0.46843090  0.31891300     0.00980
C133        C  0.98092739  0.47421696  0.30971138     0.07010
C134        C  0.98564324  0.46383187  0.30201700    -0.06090
H135        H  0.96703748  0.47340952  0.32667037     0.07680
H136        H  0.99242336  0.46446512  0.29371071     0.08880
Cu137      Cu  0.96291534  0.44079176  0.32753503     0.44170
Cu138      Cu  0.98386875  0.43319490  0.30074166     0.41990
Cu139      Cu  0.96779471  0.40585734  0.31917199     0.43880
N140        N  0.95370848  0.42535423  0.33722902    -0.34740
N141        N  0.95504246  0.41258757  0.33426843    -0.29000
C142        C  0.94714255  0.40549002  0.34247528    -0.05100
C143        C  0.94079322  0.41430095  0.35098002     0.07120
C144        C  0.94515840  0.42674201  0.34733399     0.00910
H145        H  0.94611358  0.39477298  0.34229002     0.08570
H146        H  0.94219413  0.43617233  0.35159360     0.07650
N147        N  0.98153852  0.40324576  0.30367882    -0.36190
N148        N  0.98706574  0.41326977  0.29717351    -0.28370
C149        C  0.99558355  0.40850967  0.28811806    -0.03610
C150        C  0.99544303  0.39480034  0.28872495     0.05000
C151        C  0.98651697  0.39175914  0.29881193     0.03090
H152        H  0.00159763  0.41463740  0.28164758     0.08200
H153        H  0.98405758  0.38195148  0.30252296     0.07030
N154        N  0.48241847  0.55184629  0.18327581    -0.27360
N155        N  0.47344033  0.54928760  0.17410486    -0.35210
C156        C  0.47297901  0.53611956  0.17199755     0.00980
C157        C  0.48223829  0.53009250  0.18017289     0.07010
C158        C  0.48791599  0.54034517  0.18736454    -0.06090
H159        H  0.46650058  0.53130918  0.16491357     0.07680
H160        H  0.49549226  0.53953015  0.19494313     0.08880
Cu161      Cu  0.46258868  0.56393533  0.16484270     0.44170
Cu162      Cu  0.48670274  0.57099318  0.18908621     0.41990
Cu163      Cu  0.46816990  0.59859697  0.17333497     0.43880
N164        N  0.45278512  0.57955154  0.15597746    -0.34740
N165        N  0.45452977  0.59227884  0.15885401    -0.29000
C166        C  0.44649628  0.59958808  0.15091642    -0.05100
C167        C  0.43951610  0.59093081  0.14277096     0.07120
C168        C  0.44377541  0.57838421  0.14624784     0.00910
H169        H  0.44586776  0.61034167  0.15097616     0.08570
H170        H  0.44059190  0.56904279  0.14197864     0.07650
N171        N  0.48289754  0.60089924  0.18796431    -0.36190
N172        N  0.48947764  0.59083500  0.19335837    -0.28370
C173        C  0.49832518  0.59549583  0.20214545    -0.03610
C174        C  0.49729495  0.60921243  0.20256993     0.05000
C175        C  0.48746165  0.61229843  0.19333350     0.03090
H176        H  0.50520971  0.58925308  0.20756301     0.08200
H177        H  0.48386227  0.62211777  0.19072606     0.07030
N178        N  0.54754183  0.70309568  0.25028351    -0.27360
N179        N  0.55544513  0.70581203  0.26032921    -0.35210
C180        C  0.55699984  0.71903731  0.26115591     0.00980
C181        C  0.54969670  0.72499137  0.25107001     0.07010
C182        C  0.54390692  0.71449308  0.24428375    -0.06090
H183        H  0.56326734  0.72392839  0.26837198     0.07680
H184        H  0.53809271  0.71486897  0.23528801     0.08880
Cu185      Cu  0.56464214  0.69104398  0.27113703     0.44170
Cu186      Cu  0.54287953  0.68383569  0.24538900     0.41990
Cu187      Cu  0.55955953  0.65591144  0.26225542     0.43880
N188        N  0.57467231  0.67532825  0.27964429    -0.34740
N189        N  0.57308667  0.66257557  0.27674498    -0.29000
C190        C  0.58163352  0.65540990  0.28427042    -0.05100
C191        C  0.58882113  0.66416532  0.29215475     0.07120
C192        C  0.58418940  0.67663544  0.28884869     0.00910
H193        H  0.58270439  0.64469758  0.28388103     0.08570
H194        H  0.58755952  0.68604985  0.29280483     0.07650
N195        N  0.54493677  0.65380297  0.24744343    -0.36190
N196        N  0.53893468  0.66410291  0.24186623    -0.28370
C197        C  0.52974771  0.65984198  0.23327195    -0.03610
C198        C  0.52997269  0.64607203  0.23295825     0.05000
C199        C  0.53970460  0.64260000  0.24224099     0.03090
H200        H  0.52320742  0.66654582  0.22808596     0.08200
H201        H  0.54276275  0.63264315  0.24501197     0.07030
N202        N  0.29606464  0.50977690  0.04387520    -0.27360
N203        N  0.30492401  0.51910698  0.04141651    -0.35210
C204        C  0.30709760  0.51973022  0.02825862     0.00980
C205        C  0.29934664  0.51017418  0.02221037     0.07010
C206        C  0.29236412  0.50411904  0.03236971    -0.06090
H207        H  0.31418683  0.52625840  0.02351224     0.07680
H208        H  0.28541653  0.49597570  0.03150842     0.08880
Cu209      Cu  0.31452700  0.52932003  0.05632724     0.44170
Cu210      Cu  0.29053033  0.50466789  0.06289293     0.41990
Cu211      Cu  0.30948979  0.51850411  0.09067727     0.43880
N212        N  0.32457992  0.53705709  0.07240397    -0.34740
N213        N  0.32314920  0.53311255  0.08489076    -0.29000
C214        C  0.33159827  0.54012745  0.09256464    -0.05100
C215        C  0.33850943  0.54885042  0.08444365     0.07120
C216        C  0.33382839  0.54661980  0.07178666     0.00910
H217        H  0.33257792  0.53902399  0.10322203     0.08570
H218        H  0.33697104  0.55153981  0.06274477     0.07650
N219        N  0.29434826  0.50437762  0.09269764    -0.36190
N220        N  0.28747222  0.49973908  0.08252290    -0.28370
C221        C  0.27830364  0.49114586  0.08692057    -0.03610
C222        C  0.27949543  0.49002286  0.10056168     0.05000
C223        C  0.28967284  0.49870923  0.10391200     0.03090
H224        H  0.27105537  0.48649924  0.08055972     0.08200
H225        H  0.29339333  0.50074851  0.11378945     0.07030
N226        N  0.23079916  0.44098096  0.19451397    -0.27360
N227        N  0.22127994  0.43241176  0.19717046    -0.35210
C228        C  0.21967808  0.43157683  0.21038957     0.00980
C229        C  0.22848905  0.44026996  0.21633727     0.07010
C230        C  0.23551020  0.44594090  0.20596049    -0.06090
H231        H  0.21279909  0.42493914  0.21529560     0.07680
H232        H  0.24351073  0.45305788  0.20666912     0.08880
Cu233      Cu  0.21112734  0.42251228  0.18249678     0.44170
Cu234      Cu  0.23662383  0.44520626  0.17537997     0.41990
Cu235      Cu  0.21827183  0.43018406  0.14769685     0.43880
N236        N  0.20165923  0.41380164  0.16664112    -0.34740
N237        N  0.20411353  0.41626350  0.15394423    -0.29000
C238        C  0.19611838  0.40850501  0.14649621    -0.05100
C239        C  0.18834104  0.40097417  0.15502174     0.07120
C240        C  0.19210687  0.40460112  0.16764139     0.00910
H241        H  0.19599356  0.40833206  0.13574295     0.08570
H242        H  0.18828041  0.40072590  0.17691975     0.07650
N243        N  0.23316920  0.44455004  0.14551788    -0.36190
N244        N  0.23983998  0.44956261  0.15565140    -0.28370
C245        C  0.24880537  0.45831773  0.15116439    -0.03610
C246        C  0.24767063  0.45919419  0.13750082     0.05000
C247        C  0.23775696  0.45016501  0.13423960     0.03090
H248        H  0.25585861  0.46326943  0.15750802     0.08200
H249        H  0.23412642  0.44788573  0.12438177     0.07030
C250        C  0.38033865  0.58732705  0.09139690     0.03060
C251        C  0.38019795  0.59781933  0.08210102    -0.13090
C252        C  0.39071079  0.60698595  0.08132746     0.00560
C253        C  0.40105172  0.60590667  0.09074103    -0.11610
C254        C  0.40089944  0.59603476  0.10064681     0.03050
C255        C  0.39049057  0.58680448  0.10091327    -0.11030
H256        H  0.37170510  0.59885734  0.07569314     0.08650
H257        H  0.40909302  0.61300832  0.09063617     0.06180
H258        H  0.39019559  0.57937034  0.10872026     0.06030
N259        N  0.18582768  0.25603612  0.05778231    -0.27360
N260        N  0.18848732  0.26470229  0.06722584    -0.35210
C261        C  0.20165037  0.26632158  0.06810360     0.00980
C262        C  0.20756833  0.25824535  0.05868719     0.07010
C263        C  0.19723290  0.25176995  0.05238611    -0.06090
H264        H  0.20651159  0.27268823  0.07525603     0.07680
H265        H  0.19793136  0.24457449  0.04442651     0.08880
Cu266      Cu  0.17383770  0.27381911  0.07804690     0.44170
Cu267      Cu  0.16667647  0.25117568  0.05283490     0.41990
Cu268      Cu  0.13951006  0.27125044  0.06720858     0.43880
N269        N  0.15839338  0.28403983  0.08653833    -0.34740
N270        N  0.14596973  0.28390546  0.08245060    -0.29000
C271        C  0.13902868  0.29275882  0.08976866    -0.05100
C272        C  0.14754767  0.29868058  0.09900253     0.07120
C273        C  0.15968595  0.29267895  0.09653756     0.00910
H274        H  0.12867373  0.29477951  0.08810609     0.08570
H275        H  0.16898732  0.29443599  0.10156048     0.07650
N276        N  0.13703609  0.25605583  0.05313314    -0.36190
N277        N  0.14691814  0.24879688  0.04842027    -0.28370
C278        C  0.14215693  0.23966783  0.03998995    -0.03610
C279        C  0.12855790  0.24108847  0.03919974     0.05000
C280        C  0.12565500  0.25167202  0.04765562     0.03090
H281        H  0.14824363  0.23241940  0.03489412     0.08200
H282        H  0.11604783  0.25602533  0.04960462     0.07030
N283        N  0.03617462  0.19234636  0.99111386    -0.27360
N284        N  0.03330811  0.18214898  0.98341929    -0.35210
C285        C  0.02011266  0.18098669  0.98240581     0.00980
C286        C  0.01442274  0.19095068  0.98992459     0.07010
C287        C  0.02485670  0.19789721  0.99547721    -0.06090
H288        H  0.01505132  0.17324748  0.97693848     0.07680
H289        H  0.02427044  0.20624761  0.00222969     0.08880
Cu290      Cu  0.04776557  0.17036554  0.97528497     0.44170
Cu291      Cu  0.05554508  0.19748181  0.99478861     0.41990
Cu292      Cu  0.08265841  0.17869321  0.97785227     0.43880
N293        N  0.06253705  0.16070143  0.96519490    -0.34740
N294        N  0.07520203  0.16391717  0.96511008    -0.29000
C295        C  0.08135501  0.15621486  0.95598341    -0.05100
C296        C  0.07202205  0.14779973  0.95007786     0.07120
C297        C  0.06031661  0.15088521  0.95655004     0.00910
H298        H  0.09179950  0.15684887  0.95367282     0.08570
H299        H  0.05070268  0.14647800  0.95539818     0.07650
N300        N  0.08535794  0.19379979  0.99206680    -0.36190
N301        N  0.07551320  0.20049033  0.99762980    -0.28370
C302        C  0.08041984  0.20948404  0.00610377    -0.03610
C303        C  0.09408561  0.20854664  0.00614699     0.05000
C304        C  0.09686650  0.19839034  0.99711688     0.03090
H305        H  0.07433250  0.21624647  0.01181784     0.08200
H306        H  0.10646941  0.19436527  0.99456480     0.07030
C307        C  0.13109606  0.34689714  0.16081382     0.03060
C308        C  0.13269452  0.33713396  0.15094749    -0.13090
C309        C  0.14148435  0.33909797  0.14028313     0.00560
C310        C  0.14883300  0.35096470  0.13979666    -0.11610
C311        C  0.14852503  0.36009012  0.15033803     0.03050
C312        C  0.13966333  0.35790968  0.16088998    -0.11030
H313        H  0.12720282  0.32792110  0.15167868     0.08650
H314        H  0.15514603  0.35301880  0.13134000     0.06180
H315        H  0.13947956  0.36463036  0.16925974     0.06030
N316        N  0.28525086  0.75568619  0.93594892    -0.27360
N317        N  0.28267814  0.76361787  0.92581570    -0.35210
C318        C  0.26956878  0.76408623  0.92374690     0.00980
C319        C  0.26359269  0.75584277  0.93293511     0.07010
C320        C  0.27379448  0.75071697  0.94063443    -0.06090
H321        H  0.26477509  0.76975781  0.91594107     0.07680
H322        H  0.27296894  0.74380375  0.94885773     0.08880
Cu323      Cu  0.29737516  0.77286671  0.91529657     0.44170
Cu324      Cu  0.30454135  0.75227687  0.94176088     0.41990
Cu325      Cu  0.33194730  0.77068467  0.92433707     0.43880
N326        N  0.31206173  0.78350881  0.90617657    -0.34740
N327        N  0.32468249  0.78364842  0.90954493    -0.29000
C328        C  0.33085059  0.79278609  0.90184282    -0.05100
C329        C  0.32157475  0.79863712  0.89322532     0.07120
C330        C  0.30986568  0.79213943  0.89630604     0.00910
H331        H  0.34129079  0.79507152  0.90256009     0.08570
H332        H  0.30024735  0.79317003  0.89187938     0.07650
N333        N  0.33445032  0.75552707  0.93865455    -0.36190
N334        N  0.32456148  0.74924780  0.94463101    -0.28370
C335        C  0.32944903  0.74008373  0.95302418    -0.03610
C336        C  0.34307991  0.74030795  0.95228527     0.05000
C337        C  0.34595469  0.75037310  0.94323739     0.03090
H338        H  0.32340342  0.73402279  0.95950437     0.08200
H339        H  0.35569399  0.75365805  0.94018563     0.07030
N340        N  0.43629992  0.69124234  0.00070559    -0.27360
N341        N  0.43895621  0.68161127  0.00924608    -0.35210
C342        C  0.45212816  0.68017452  0.01031812     0.00980
C343        C  0.45804995  0.68949630  0.00214839     0.07010
C344        C  0.44773402  0.69623246  0.99604341    -0.06090
H345        H  0.45694919  0.67260084  0.01626622     0.07680
H346        H  0.44848121  0.70412188  0.98873934     0.08880
Cu347      Cu  0.42450045  0.67097748  0.01892102     0.44170
Cu348      Cu  0.41718484  0.69672951  0.99604966     0.41990
Cu349      Cu  0.38995783  0.67874631  0.01259298     0.43880
N350        N  0.40903017  0.66187120  0.02859049    -0.34740
N351        N  0.39633932  0.66436037  0.02637724    -0.29000
C352        C  0.38908312  0.65653343  0.03451414    -0.05100
C353        C  0.39771551  0.64901553  0.04224371     0.07120
C354        C  0.41022504  0.65261087  0.03815132     0.00910
H355        H  0.37837154  0.65643553  0.03490108     0.08570
H356        H  0.41955598  0.64872091  0.04179539     0.07650
N357        N  0.38741692  0.69427104  0.99878924    -0.36190
N358        N  0.39736409  0.70067306  0.99307929    -0.28370
C359        C  0.39256121  0.71009576  0.98489928    -0.03610
C360        C  0.37891238  0.70980227  0.98549359     0.05000
C361        C  0.37595510  0.69952163  0.99425089     0.03090
H362        H  0.39860030  0.71656519  0.97879513     0.08200
H363        H  0.36619364  0.69613646  0.99711615     0.07030
N364        N  0.42594658  0.80357778  0.75282598    -0.27360
N365        N  0.41630093  0.80099651  0.76127930    -0.35210
C366        C  0.41444918  0.78781903  0.76198861     0.00980
C367        C  0.42344998  0.78175010  0.75362865     0.07010
C368        C  0.43055124  0.79203216  0.74785223    -0.06090
H369        H  0.40679265  0.78303489  0.76780445     0.07680
H370        H  0.43805517  0.79122154  0.74021600     0.08880
Cu371      Cu  0.40543240  0.81551036  0.77054571     0.44170
Cu372      Cu  0.43111982  0.82289177  0.74820686     0.41990
Cu373      Cu  0.41234807  0.85020981  0.76463845     0.43880
N374        N  0.39496888  0.83069093  0.77920997    -0.34740
N375        N  0.39743879  0.84350630  0.77752658    -0.29000
C376        C  0.38879730  0.85052079  0.78501521    -0.05100
C377        C  0.38043834  0.84158611  0.79139441     0.07120
C378        C  0.38474209  0.82915892  0.78755998     0.00910
H379        H  0.38852035  0.86126798  0.78566827     0.08570
H380        H  0.38080881  0.81965102  0.79072201     0.07650
N381        N  0.42749586  0.85285261  0.75059207    -0.36190
N382        N  0.43403276  0.84295707  0.74487703    -0.28370
C383        C  0.44283912  0.84794517  0.73623027    -0.03610
C384        C  0.44199974  0.86165633  0.73645580     0.05000
C385        C  0.43208148  0.86445039  0.74562962     0.03090
H386        H  0.44941480  0.84196935  0.73018242     0.08200
H387        H  0.42812525  0.87410378  0.74822127     0.07030
N388        N  0.48892554  0.95362080  0.68529565    -0.27360
N389        N  0.49677958  0.95638308  0.67518869    -0.35210
C390        C  0.49675949  0.96956309  0.67304175     0.00980
C391        C  0.48832600  0.97537092  0.68216036     0.07010
C392        C  0.48365075  0.96500045  0.68992723    -0.06090
H393        H  0.50231480  0.97452490  0.66528759     0.07680
H394        H  0.47685354  0.96565210  0.69821736     0.08880
Cu395      Cu  0.50683771  0.94199005  0.66480404     0.44170
Cu396      Cu  0.48560579  0.93434206  0.69143513     0.41990
Cu397      Cu  0.50308019  0.90720594  0.67393292     0.43880
N398        N  0.51694215  0.92670341  0.65581364    -0.34740
N399        N  0.51598845  0.91397359  0.65906840    -0.29000
C400        C  0.52438207  0.90696018  0.65130859    -0.05100
C401        C  0.53085268  0.91580968  0.64290428     0.07120
C402        C  0.52578385  0.92815770  0.64598342     0.00910
H403        H  0.52565536  0.89626794  0.65171253     0.08570
H404        H  0.52845740  0.93758494  0.64150982     0.07650
N405        N  0.48879705  0.90443789  0.68881770    -0.36190
N406        N  0.48267783  0.91434139  0.69494313    -0.28370
C407        C  0.47401159  0.90937491  0.70373847    -0.03610
C408        C  0.47451683  0.89565045  0.70320579     0.05000
C409        C  0.48410974  0.89284049  0.69368023     0.03090
H410        H  0.46765972  0.91537710  0.70999633     0.08200
H411        H  0.48771524  0.88317411  0.69068005     0.07030
C412        C  0.33075181  0.83971107  0.85278191     0.03060
C413        C  0.33989375  0.83809561  0.84231410    -0.13090
C414        C  0.34057548  0.84752115  0.83199063     0.00560
C415        C  0.33146421  0.85804794  0.83152492    -0.11610
C416        C  0.32206940  0.85963671  0.84165443     0.03050
C417        C  0.32232951  0.85093939  0.85256474    -0.11030
H418        H  0.34633548  0.82947641  0.84196616     0.08650
H419        H  0.33165088  0.86494783  0.82322136     0.06180
H420        H  0.31572859  0.85282525  0.86083020     0.06030
N421        N  0.73889575  0.06490836  0.69499858    -0.27360
N422        N  0.74788043  0.07398815  0.69781180    -0.35210
C423        C  0.74844591  0.07565805  0.71102564     0.00980
C424        C  0.73925193  0.06728208  0.71681562     0.07010
C425        C  0.73347804  0.06045385  0.70637118    -0.06090
H426        H  0.75498128  0.08254541  0.71603831     0.07680
H427        H  0.72591866  0.05285364  0.70697822     0.08880
Cu428      Cu  0.75865208  0.08360733  0.68338229     0.44170
Cu429      Cu  0.73462024  0.05972711  0.67567519     0.41990
Cu430      Cu  0.75204844  0.07750340  0.64846383     0.43880
N431        N  0.76841081  0.09303584  0.66811398    -0.34740
N432        N  0.76618274  0.09120394  0.65530061    -0.29000
C433        C  0.77417375  0.09948061  0.64837428    -0.05100
C434        C  0.78174945  0.10680382  0.65735004     0.07120
C435        C  0.77774487  0.10234533  0.66971584     0.00910
H436        H  0.77418213  0.10033101  0.63765500     0.08570
H437        H  0.78131085  0.10565107  0.67929885     0.07650
N438        N  0.73753199  0.06277558  0.64579324    -0.36190
N439        N  0.73147601  0.05656260  0.65568799    -0.28370
C440        C  0.72272042  0.04785251  0.65073862    -0.03610
C441        C  0.72324701  0.04839433  0.63704764     0.05000
C442        C  0.73269408  0.05805643  0.63422264     0.03090
H443        H  0.71642413  0.04152219  0.65672472     0.08200
H444        H  0.73558886  0.06172431  0.62454785     0.07030
N445        N  0.67370200  0.00012560  0.54507950    -0.27360
N446        N  0.66236407  0.99408150  0.54270685    -0.35210
C447        C  0.66001066  0.99408797  0.52958748     0.00980
C448        C  0.67037859  0.00055480  0.52341109     0.07010
C449        C  0.67896267  0.00421770  0.53347956    -0.06090
H450        H  0.65123170  0.99004606  0.52493278     0.07680
H451        H  0.68799807  0.00991424  0.53251056     0.08880
Cu452      Cu  0.65079711  0.98647059  0.55765098     0.44170
Cu453      Cu  0.68005421  0.00311512  0.56433118     0.41990
Cu454      Cu  0.66177266  0.98638002  0.59192520     0.43880
N455        N  0.64203536  0.97551808  0.57244316    -0.34740
N456        N  0.64627414  0.97443376  0.58480452    -0.29000
C457        C  0.63898854  0.96496284  0.59093214    -0.05100
C458        C  0.62975619  0.95985184  0.58190624     0.07120
C459        C  0.63197760  0.96713988  0.57041117     0.00910
H460        H  0.64048333  0.96185705  0.60112696     0.08570
H461        H  0.62687885  0.96669218  0.56105387     0.07650
N462        N  0.67652818  0.00091465  0.59434980    -0.36190
N463        N  0.68285307  0.00667781  0.58434226    -0.28370
C464        C  0.69128940  0.01578567  0.58911329    -0.03610
C465        C  0.69030226  0.01597437  0.60278256     0.05000
C466        C  0.68092505  0.00631076  0.60581489     0.03090
H467        H  0.69761055  0.02196966  0.58300242     0.08200
H468        H  0.67757911  0.00339432  0.61561350     0.07030
N469        N  0.53644505  0.81457236  0.50059470    -0.27360
N470        N  0.53361868  0.82375109  0.50949664    -0.35210
C471        C  0.52043260  0.82512694  0.51041244     0.00980
C472        C  0.51460561  0.81626738  0.50167777     0.07010
C473        C  0.52508621  0.80980071  0.49551702    -0.06090
H474        H  0.51552565  0.83231799  0.51671609     0.07680
H475        H  0.52451258  0.80221774  0.48791731     0.08880
Cu476      Cu  0.54802318  0.83395495  0.51957073     0.44170
Cu477      Cu  0.55581607  0.80971444  0.49612172     0.41990
Cu478      Cu  0.58297803  0.82810413  0.51288673     0.43880
N479        N  0.56314871  0.84358923  0.52914119    -0.34740
N480        N  0.57594625  0.84178986  0.52699199    -0.29000
C481        C  0.58273403  0.85004971  0.53509637    -0.05100
C482        C  0.57367163  0.85731639  0.54262196     0.07120
C483        C  0.56141591  0.85287599  0.53849788     0.00910
H484        H  0.59341384  0.85089417  0.53526151     0.08570
H485        H  0.55182700  0.85612815  0.54205492     0.07650
N486        N  0.58567638  0.81322591  0.49847528    -0.36190
N487        N  0.57579693  0.80672207  0.49279263    -0.28370
C488        C  0.58069786  0.79782157  0.48418038    -0.03610
C489        C  0.59437991  0.79860293  0.48425329     0.05000
C490        C  0.59718943  0.80855331  0.49346717     0.03090
H491        H  0.57462892  0.79116305  0.47834631     0.08200
H492        H  0.60682534  0.81234810  0.49619569     0.07030
N493        N  0.68643343  0.74966888  0.43306706    -0.27360
N494        N  0.68891424  0.73968189  0.42492918    -0.35210
C495        C  0.70203439  0.73865490  0.42305938     0.00980
C496        C  0.70813644  0.74861191  0.43025700     0.07010
C497        C  0.69796821  0.75531950  0.43662946    -0.06090
H498        H  0.70669216  0.73116922  0.41692460     0.07680
H499        H  0.69886489  0.76388552  0.44306952     0.08880
Cu500      Cu  0.67434416  0.72857376  0.41599857     0.44170
Cu501      Cu  0.66734295  0.75502184  0.43832392     0.41990
Cu502      Cu  0.64015536  0.73503780  0.42399382     0.43880
N503        N  0.65877443  0.71949076  0.40647456    -0.34740
N504        N  0.64614171  0.72150006  0.40934083    -0.29000
C505        C  0.63870216  0.71412249  0.40098114    -0.05100
C506        C  0.64715558  0.70741401  0.39241002     0.07120
C507        C  0.65975788  0.71100842  0.39623889     0.00910
H508        H  0.62798531  0.71391021  0.40092187     0.08570
H509        H  0.66899432  0.70777412  0.39182936     0.07650
N510        N  0.63767752  0.75038082  0.43788113    -0.36190
N511        N  0.64746757  0.75768751  0.44264801    -0.28370
C512        C  0.64249122  0.76684428  0.45098507    -0.03610
C513        C  0.62885584  0.76537636  0.45162395     0.05000
C514        C  0.62620891  0.75469435  0.44321969     0.03090
H515        H  0.64843491  0.77412654  0.45617327     0.08200
H516        H  0.61679845  0.75004519  0.44126187     0.07030
C517        C  0.57029789  0.90981895  0.60182135     0.03060
C518        C  0.56981189  0.89925525  0.59278285    -0.13090
C519        C  0.57949627  0.89804045  0.58288648     0.00560
C520        C  0.59008158  0.90701584  0.58256539    -0.11610
C521        C  0.59052438  0.91801789  0.59125327     0.03050
C522        C  0.58042236  0.91934568  0.60084227    -0.11030
H523        H  0.56170329  0.89220477  0.59320986     0.08650
H524        H  0.59770268  0.90564298  0.57511468     0.06180
H525        H  0.58009700  0.92793971  0.60730409     0.06030
N526        N  0.78432578  0.24842357  0.55546897    -0.27360
N527        N  0.78152087  0.23956151  0.56473611    -0.35210
C528        C  0.76839106  0.23939563  0.56676258     0.00980
C529        C  0.76265316  0.24873192  0.55843365     0.07010
C530        C  0.77302799  0.25414853  0.55123964    -0.06090
H531        H  0.76342045  0.23314366  0.57396810     0.07680
H532        H  0.77244018  0.26176258  0.54363081     0.08880
Cu533      Cu  0.79586406  0.22883263  0.57456690     0.44170
Cu534      Cu  0.80355422  0.25243523  0.54998862     0.41990
Cu535      Cu  0.83068301  0.23565446  0.56823351     0.43880
N536        N  0.81115685  0.22016743  0.58497701    -0.34740
N537        N  0.82390212  0.22249599  0.58301467    -0.29000
C538        C  0.83089463  0.21544219  0.59208574    -0.05100
C539        C  0.82203655  0.20863129  0.60020285     0.07120
C540        C  0.80967427  0.21172717  0.59520919     0.00910
H541        H  0.84158638  0.21544147  0.59287541     0.08570
H542        H  0.80021929  0.20817313  0.59881900     0.07650
N543        N  0.83334997  0.24964107  0.55287473    -0.36190
N544        N  0.82342585  0.25545338  0.54647828    -0.28370
C545        C  0.82823714  0.26405357  0.53748677    -0.03610
C546        C  0.84188960  0.26362063  0.53798077     0.05000
C547        C  0.84481854  0.25451155  0.54799529     0.03090
H548        H  0.82212773  0.27057306  0.53149549     0.08200
H549        H  0.85456769  0.25173311  0.55153761     0.07030
N550        N  0.93525577  0.31401543  0.49140843    -0.27360
N551        N  0.93786468  0.32263339  0.48185558    -0.35210
C552        C  0.95102656  0.32365392  0.48039321     0.00980
C553        C  0.95700276  0.31507731  0.48935335     0.07010
C554        C  0.94671326  0.30925676  0.49633404    -0.06090
H555        H  0.95587945  0.33031242  0.47347516     0.07680
H556        H  0.94748864  0.30216016  0.50440939     0.08880
Cu557      Cu  0.92332522  0.33255989  0.47150096     0.44170
Cu558      Cu  0.91614030  0.30961536  0.49698221     0.41990
Cu559      Cu  0.88873396  0.32695298  0.47988926     0.43880
N560        N  0.90777301  0.34180677  0.46202715    -0.34740
N561        N  0.89511574  0.34023627  0.46506828    -0.29000
C562        C  0.88784417  0.34818943  0.45702526    -0.05100
C563        C  0.89641842  0.35479253  0.44849439     0.07120
C564        C  0.90891767  0.35055202  0.45199785     0.00910
H565        H  0.87715963  0.34903665  0.45729644     0.08570
H566        H  0.91821247  0.35371848  0.44767980     0.07650
N567        N  0.88632183  0.31246836  0.49479744    -0.36190
N568        N  0.89635441  0.30645100  0.50082123    -0.28370
C569        C  0.89169561  0.29758286  0.50963655    -0.03610
C570        C  0.87803842  0.29803071  0.50937767     0.05000
C571        C  0.87493693  0.30744607  0.49971192     0.03090
H572        H  0.89789299  0.29091514  0.51537289     0.08200
H573        H  0.86512849  0.31035170  0.49644677     0.07030
N574        N  0.73025876  0.56445215  0.29626818    -0.27360
N575        N  0.72067999  0.57296049  0.29345830    -0.35210
C576        C  0.71978286  0.57437879  0.28022194     0.00980
C577        C  0.72933903  0.56640792  0.27437440     0.07010
C578        C  0.73575186  0.56016913  0.28488085    -0.06090
H579        H  0.71295328  0.58105996  0.27525506     0.07680
H580        H  0.74382944  0.55309627  0.28436097     0.08880
Cu581      Cu  0.70992085  0.58269288  0.30786347     0.44170
Cu582      Cu  0.73547475  0.55979140  0.31555165     0.41990
Cu583      Cu  0.71728496  0.57606613  0.34269588     0.43880
N584        N  0.70085701  0.59236738  0.32344217    -0.34740
N585        N  0.70343394  0.59023535  0.33617687    -0.29000
C586        C  0.69588595  0.59858389  0.34347531    -0.05100
C587        C  0.68827461  0.60618241  0.33483253     0.07120
C588        C  0.69167724  0.60198703  0.32227234     0.00910
H589        H  0.69592816  0.59908154  0.35421823     0.08570
H590        H  0.68781482  0.60570295  0.31293253     0.07650
N591        N  0.73225305  0.56180510  0.34542119    -0.36190
N592        N  0.73893142  0.55636245  0.33548648    -0.28370
C593        C  0.74807888  0.54795479  0.34037803    -0.03610
C594        C  0.74719593  0.54802997  0.35405287     0.05000
C595        C  0.73695244  0.55678132  0.35695790     0.03090
H596        H  0.75475450  0.54203604  0.33438499     0.08200
H597        H  0.73326462  0.55936157  0.36671760     0.07030
N598        N  0.79604630  0.49928616  0.44626566    -0.27360
N599        N  0.80681326  0.49214707  0.44838282    -0.35210
C600        C  0.80952889  0.49188089  0.46141580     0.00980
C601        C  0.80016717  0.49954513  0.46787803     0.07010
C602        C  0.79162167  0.50396447  0.45798960    -0.06090
H603        H  0.81769715  0.48642419  0.46576070     0.07680
H604        H  0.78309878  0.51040553  0.45918527     0.08880
Cu605      Cu  0.81751375  0.48371868  0.43331343     0.44170
Cu606      Cu  0.78908300  0.50217931  0.42712712     0.41990
Cu607      Cu  0.80724469  0.48499359  0.39924174     0.43880
N608        N  0.82664568  0.47325235  0.41849427    -0.34740
N609        N  0.82268708  0.47264985  0.40601921    -0.29000
C610        C  0.83013485  0.46337422  0.39975496    -0.05100
C611        C  0.83914620  0.45791473  0.40884980     0.07120
C612        C  0.83669916  0.46481625  0.42048656     0.00910
H613        H  0.82890264  0.46061191  0.38944088     0.08570
H614        H  0.84169492  0.46405965  0.42989271     0.07650
N615        N  0.79192111  0.49907537  0.39703491    -0.36190
N616        N  0.78539324  0.50467728  0.40701682    -0.28370
C617        C  0.77623991  0.51308723  0.40213150    -0.03610
C618        C  0.77695130  0.51287828  0.38845627     0.05000
C619        C  0.78709493  0.50403161  0.38551657     0.03090
H620        H  0.76974459  0.51919091  0.40813896     0.08200
H621        H  0.79070247  0.50141030  0.37573764     0.07030
C622        C  0.90014254  0.40874451  0.39096173     0.03060
C623        C  0.90042564  0.39827647  0.40021188    -0.13090
C624        C  0.89003299  0.39659167  0.40933432     0.00560
C625        C  0.87909438  0.40519651  0.40862556    -0.11610
C626        C  0.87919998  0.41657628  0.40037805     0.03050
C627        C  0.88993984  0.41828414  0.39159457    -0.11030
H628        H  0.90869868  0.39137525  0.40020439     0.08650
H629        H  0.87048830  0.40307970  0.41466271     0.06180
H630        H  0.89052714  0.42697514  0.38525207     0.06030
C631        C  0.64045041  0.66828293  0.35117032     0.03060
C632        C  0.63096805  0.66901241  0.34099036    -0.13090
C633        C  0.63083812  0.65946629  0.33083399     0.00560
C634        C  0.64046738  0.64938996  0.33067871    -0.11610
C635        C  0.65014119  0.64864990  0.34072310     0.03050
C636        C  0.64988586  0.65798712  0.35110656    -0.11030
H637        H  0.62364755  0.67692779  0.34102688     0.08650
H638        H  0.64044205  0.64214238  0.32270795     0.06180
H639        H  0.65694860  0.65724892  0.35918745     0.06030
C640        C  0.84138524  0.15868752  0.65956748     0.03060
C641        C  0.83216063  0.14818393  0.65972480    -0.13090
C642        C  0.82138567  0.14806105  0.65086052     0.00560
C643        C  0.82026269  0.15807202  0.64119414    -0.11610
C644        C  0.82941059  0.16854274  0.64083929     0.03050
C645        C  0.83956589  0.16910220  0.65034907    -0.11030
H646        H  0.83312764  0.14023724  0.66697158     0.08650
H647        H  0.81209750  0.15790854  0.63418784     0.06180
H648        H  0.84578309  0.17784085  0.65066891     0.06030
N649        N  0.18568377  0.74667973  0.93583919    -0.27360
N650        N  0.18811966  0.73912026  0.92541315    -0.35210
C651        C  0.20119333  0.73903338  0.92302351     0.00980
C652        C  0.20726604  0.74708025  0.93232771     0.07010
C653        C  0.19716109  0.75164937  0.94043197    -0.06090
H654        H  0.20590663  0.73367925  0.91498208     0.07680
H655        H  0.19805337  0.75818765  0.94891972     0.08880
Cu656      Cu  0.17339009  0.72974197  0.91487197     0.44170
Cu657      Cu  0.16667269  0.75031776  0.94231275     0.41990
Cu658      Cu  0.13896273  0.73762362  0.92200669     0.43880
N659        N  0.15761879  0.72104846  0.90528558    -0.34740
N660        N  0.14498391  0.72381388  0.90749830    -0.29000
C661        C  0.13754716  0.71618801  0.89933672    -0.05100
C662        C  0.14601795  0.70834943  0.89176664     0.07120
C663        C  0.15859244  0.71167046  0.89586420     0.00910
H664        H  0.12683206  0.71622772  0.89903065     0.08570
H665        H  0.16782967  0.70756174  0.89224812     0.07650
N666        N  0.13699072  0.75111356  0.93787736    -0.36190
N667        N  0.14704770  0.75514766  0.94526710    -0.28370
C668        C  0.14265670  0.76352754  0.95466050    -0.03610
C669        C  0.12912958  0.76520182  0.95312861     0.05000
C670        C  0.12587718  0.75701838  0.94243952     0.03090
H671        H  0.14901042  0.76774666  0.96215223     0.08200
H672        H  0.11613043  0.75556116  0.93820805     0.07030
N673        N  0.03456693  0.81390173  0.00137308    -0.27360
N674        N  0.03194235  0.82088148  0.01214945    -0.35210
C675        C  0.01878078  0.82243675  0.01328158     0.00980
C676        C  0.01289643  0.81608998  0.00264974     0.07010
C677        C  0.02314270  0.81065401  0.99535084    -0.06090
H678        H  0.01390903  0.82818583  0.02094700     0.07680
H679        H  0.02238891  0.80527215  0.98607546     0.08880
Cu680      Cu  0.04663015  0.82919520  0.02353429     0.44170
Cu681      Cu  0.05369111  0.81042965  0.99523015     0.41990
Cu682      Cu  0.08119611  0.82649591  0.01310213     0.43880
N683        N  0.06172044  0.84053568  0.03115788    -0.34740
N684        N  0.07424295  0.84021314  0.02730626    -0.29000
C685        C  0.08080893  0.84997568  0.03376596    -0.05100
C686        C  0.07186699  0.85679177  0.04182047     0.07120
C687        C  0.05998092  0.85028164  0.04005549     0.00910
H688        H  0.09124162  0.85210832  0.03254912     0.08570
H689        H  0.05068223  0.85223691  0.04499491     0.07650
N690        N  0.08352317  0.81196904  0.99819712    -0.36190
N691        N  0.07343104  0.80675484  0.99166524    -0.28370
C692        C  0.07789699  0.79800280  0.98267854    -0.03610
C693        C  0.09156687  0.79723355  0.98359477     0.05000
C694        C  0.09476801  0.80639695  0.99351524     0.03090
H695        H  0.07140853  0.79288927  0.97592108     0.08200
H696        H  0.10456808  0.80873823  0.99717690     0.07030
C697        C  0.09089826  0.91754917  0.09029425     0.03060
C698        C  0.08966772  0.90792517  0.08023528    -0.13090
C699        C  0.07954448  0.89838182  0.08075640     0.00560
C700        C  0.07012857  0.89892466  0.09100382    -0.11610
C701        C  0.07089936  0.90882890  0.10075816     0.03050
C702        C  0.08138251  0.91798086  0.10047699    -0.11030
H703        H  0.09640055  0.90794295  0.07186023     0.08650
H704        H  0.06209402  0.89178268  0.09126162     0.06180
H705        H  0.08203619  0.92553191  0.10813299     0.06030
N706        N  0.04709222  0.70250349  0.74931918    -0.27360
N707        N  0.05705833  0.70513032  0.75737852    -0.35210
C708        C  0.05940368  0.71826445  0.75731766     0.00980
C709        C  0.05043877  0.72416125  0.74876784     0.07010
C710        C  0.04268840  0.71394414  0.74390634    -0.06090
H711        H  0.06724100  0.72310703  0.76282026     0.07680
H712        H  0.03483321  0.71469475  0.73661498     0.08880
Cu713      Cu  0.06717261  0.69051267  0.76741993     0.44170
Cu714      Cu  0.04133778  0.68320696  0.74558592     0.41990
Cu715      Cu  0.06047807  0.65559404  0.76112999     0.43880
N716        N  0.07644965  0.67516586  0.77719889    -0.34740
N717        N  0.07440469  0.66234149  0.77511474    -0.29000
C718        C  0.08242209  0.65535590  0.78335848    -0.05100
C719        C  0.08963136  0.66432540  0.79102653     0.07120
C720        C  0.08561276  0.67671980  0.78669476     0.00910
H721        H  0.08306418  0.64460440  0.78365054     0.08570
H722        H  0.08912795  0.68626242  0.79019380     0.07650
N723        N  0.04509683  0.65320469  0.74722319    -0.36190
N724        N  0.03827895  0.66324121  0.74203985    -0.28370
C725        C  0.02911788  0.65850243  0.73363783    -0.03610
C726        C  0.02997671  0.64480556  0.73353033     0.05000
C727        C  0.04035689  0.64175045  0.74209543     0.03090
H728        H  0.02244368  0.66464112  0.72782790     0.08200
H729        H  0.04415703  0.63193657  0.74442548     0.07030
N730        N  0.98312224  0.55341802  0.68156417    -0.27360
N731        N  0.97350511  0.55066491  0.67312564    -0.35210
C732        C  0.97289158  0.53743558  0.67139377     0.00980
C733        C  0.98271712  0.53159882  0.67903256     0.07010
C734        C  0.98889305  0.54201278  0.68553103    -0.06090
H735        H  0.96599575  0.53245930  0.66484180     0.07680
H736        H  0.99706831  0.54137677  0.69247266     0.08880
Cu737      Cu  0.96229159  0.56521258  0.66402557     0.44170
Cu738      Cu  0.98812583  0.57265708  0.68639217     0.41990
Cu739      Cu  0.97059192  0.60009665  0.66971768     0.43880
N740        N  0.95298350  0.58093680  0.65469971    -0.34740
N741        N  0.95602946  0.59364622  0.65630560    -0.29000
C742        C  0.94833113  0.60098464  0.64808641    -0.05100
C743        C  0.94005320  0.59240946  0.64121222     0.07120
C744        C  0.94329538  0.57983692  0.64562801     0.00910
H745        H  0.94872375  0.61171171  0.64718229     0.08570
H746        H  0.93907851  0.57051904  0.64231752     0.07650
N747        N  0.98570849  0.60260017  0.68383235    -0.36190
N748        N  0.99200512  0.59251549  0.68953305    -0.28370
C749        C  0.00117229  0.59719981  0.69796180    -0.03610
C750        C  0.00079117  0.61091470  0.69758957     0.05000
C751        C  0.99072994  0.61404998  0.68868205     0.03090
H752        H  0.00749324  0.59103491  0.70413049     0.08200
H753        H  0.98731587  0.62390618  0.68596100     0.07030
N754        N  0.23018854  0.56442782  0.79356743    -0.27360
N755        N  0.22171009  0.57406922  0.79086892    -0.35210
C756        C  0.22095476  0.57574344  0.77765220     0.00980
C757        C  0.22932556  0.56659443  0.77168683     0.07010
C758        C  0.23508982  0.55963678  0.78212036    -0.06090
H759        H  0.21505300  0.58335634  0.77284040     0.07680
H760        H  0.24237493  0.55174641  0.78147018     0.08880
Cu761      Cu  0.21195921  0.58455775  0.80541011     0.44170
Cu762      Cu  0.23485513  0.55900637  0.81279360     0.41990
Cu763      Cu  0.21864854  0.57706358  0.84016730     0.43880
N764        N  0.20284551  0.59403080  0.82103045    -0.34740
N765        N  0.20510986  0.59155629  0.83376114    -0.29000
C766        C  0.19741596  0.59974216  0.84109005    -0.05100
C767        C  0.19005672  0.60759103  0.83245017     0.07120
C768        C  0.19373400  0.60370258  0.81988059     0.00910
H769        H  0.19716260  0.59993304  0.85184043     0.08570
H770        H  0.19006029  0.60762026  0.81054589     0.07650
N771        N  0.23305918  0.56222397  0.84268177    -0.36190
N772        N  0.23877842  0.55587564  0.83268868    -0.28370
C773        C  0.24769698  0.54717649  0.83749247    -0.03610
C774        C  0.24779444  0.54808942  0.85117874     0.05000
C775        C  0.23824798  0.55761095  0.85416582     0.03090
H776        H  0.25375918  0.54070020  0.83141969     0.08200
H777        H  0.23525391  0.56089194  0.86395507     0.07030
N778        N  0.29707128  0.49928709  0.94415900    -0.27360
N779        N  0.30646436  0.49053501  0.94684905    -0.35210
C780        C  0.30837275  0.49003629  0.96003922     0.00980
C781        C  0.29979908  0.49899943  0.96598313     0.07010
C782        C  0.29270586  0.50464706  0.95558492    -0.06090
H783        H  0.31572032  0.48385121  0.96489992     0.07680
H784        H  0.28495617  0.51207321  0.95620888     0.08880
Cu785      Cu  0.31650271  0.48019521  0.93234542     0.44170
Cu786      Cu  0.29132460  0.50357785  0.92494524     0.41990
Cu787      Cu  0.30895558  0.48676584  0.89762862     0.43880
N788        N  0.32591742  0.47093171  0.91672924    -0.34740
N789        N  0.32337056  0.47313585  0.90400310    -0.29000
C790        C  0.33143252  0.46533143  0.89665360    -0.05100
C791        C  0.33933167  0.45799798  0.90526622     0.07120
C792        C  0.33557139  0.46179273  0.91785016     0.00910
H793        H  0.33156775  0.46505031  0.88590326     0.08570
H794        H  0.33957506  0.45818875  0.92717368     0.07650
N795        N  0.29376545  0.50079137  0.89505443    -0.36190
N796        N  0.28753135  0.50668117  0.90502090    -0.28370
C797        C  0.27841574  0.51513942  0.90015957    -0.03610
C798        C  0.27871992  0.51452039  0.88646454     0.05000
C799        C  0.28868487  0.50543194  0.88353214     0.03090
H800        H  0.27202822  0.52133301  0.90619125     0.08200
H801        H  0.29209747  0.50254246  0.87375716     0.07030
N802        N  0.48120550  0.45450233  0.80602618    -0.27360
N803        N  0.47127912  0.45732399  0.81405785    -0.35210
C804        C  0.47028439  0.47058209  0.81536497     0.00980
C805        C  0.48004027  0.47643199  0.80765221     0.07010
C806        C  0.48683624  0.46589915  0.80192722    -0.06090
H807        H  0.46327462  0.47551065  0.82183609     0.07680
H808        H  0.49529327  0.46645182  0.79534583     0.08880
Cu809      Cu  0.46026337  0.44280542  0.82327944     0.44170
Cu810      Cu  0.48641748  0.43516506  0.80162545     0.41990
Cu811      Cu  0.46814689  0.40785234  0.81796556     0.43880
N812        N  0.45135682  0.42739151  0.83333458    -0.34740
N813        N  0.45417539  0.41461943  0.83189690    -0.29000
C814        C  0.44691892  0.40763855  0.84078203    -0.05100
C815        C  0.43917719  0.41652057  0.84808364     0.07120
C816        C  0.44233269  0.42890073  0.84297007     0.00910
H817        H  0.44756054  0.39696509  0.84206036     0.08570
H818        H  0.43844934  0.43844289  0.84608623     0.07650
N819        N  0.48270377  0.40527140  0.80324743    -0.36190
N820        N  0.48925578  0.41522180  0.79772404    -0.28370
C821        C  0.49789090  0.41039660  0.78882959    -0.03610
C822        C  0.49687117  0.39663145  0.78846014     0.05000
C823        C  0.48704143  0.39378615  0.79783859     0.03090
H824        H  0.50454920  0.41661808  0.78315680     0.08200
H825        H  0.48305617  0.38421687  0.80055867     0.07030
N826        N  0.54696575  0.30469161  0.73898290    -0.27360
N827        N  0.55439887  0.30172050  0.72862171    -0.35210
C828        C  0.55587005  0.28845327  0.72792693     0.00980
C829        C  0.54915175  0.28285415  0.73850495     0.07010
C830        C  0.54349609  0.29340582  0.74526463    -0.06090
H831        H  0.56176802  0.28330848  0.72056309     0.07680
H832        H  0.53750476  0.29293279  0.75417041     0.08880
Cu833      Cu  0.56324449  0.31615251  0.71714607     0.44170
Cu834      Cu  0.54270492  0.32409242  0.74393378     0.41990
Cu835      Cu  0.56018349  0.35119253  0.72663451     0.43880
N836        N  0.57438543  0.33129570  0.70911089    -0.34740
N837        N  0.57372127  0.34400913  0.71245762    -0.29000
C838        C  0.58320557  0.35065544  0.70568874    -0.05100
C839        C  0.59022697  0.34158967  0.69795073     0.07120
C840        C  0.58417891  0.32949703  0.70030633     0.00910
H841        H  0.58507542  0.36121833  0.70657827     0.08570
H842        H  0.58669360  0.31997270  0.69598067     0.07650
N843        N  0.54556585  0.35400320  0.74126854    -0.36190
N844        N  0.53938752  0.34404696  0.74719051    -0.28370
C845        C  0.53049722  0.34887575  0.75580594    -0.03610
C846        C  0.53093914  0.36267980  0.75561029     0.05000
C847        C  0.54070886  0.36552977  0.74614932     0.03090
H848        H  0.52404741  0.34259071  0.76164270     0.08200
H849        H  0.54427089  0.37513398  0.74299068     0.07030
C850        C  0.39119873  0.39845534  0.90961490     0.03060
C851        C  0.38093028  0.40792670  0.90991543    -0.13090
C852        C  0.38007284  0.41793854  0.90016182     0.00560
C853        C  0.38999332  0.41876722  0.89041389    -0.11610
C854        C  0.40071548  0.40983063  0.89041606     0.03050
C855        C  0.40121101  0.39963360  0.89996223    -0.11030
H856        H  0.37369697  0.40754426  0.91784758     0.08650
H857        H  0.38950098  0.42652809  0.88291758     0.06180
H858        H  0.40944564  0.39268443  0.89995911     0.06030
C859        C  0.14133108  0.66809528  0.85087323     0.03060
C860        C  0.13084430  0.66822367  0.84160727    -0.13090
C861        C  0.13075318  0.65936997  0.83083683     0.00560
C862        C  0.14092934  0.65001139  0.82948931    -0.11610
C863        C  0.15146579  0.64965191  0.83858568     0.03050
C864        C  0.15175688  0.65892033  0.84904543    -0.11030
H865        H  0.12283066  0.67534941  0.84261719     0.08650
H866        H  0.14075831  0.64313938  0.82119263     0.06180
H867        H  0.16029187  0.65910230  0.85551246     0.06030
N868        N  0.92450607  0.80305402  0.25008327    -0.27360
N869        N  0.91499306  0.80064018  0.25873925    -0.35210
C870        C  0.91294616  0.78748269  0.25950523     0.00980
C871        C  0.92170444  0.78126210  0.25099085     0.07010
C872        C  0.92883329  0.79143204  0.24505214    -0.06090
H873        H  0.90543533  0.78281097  0.26559684     0.07680
H874        H  0.93626621  0.79048821  0.23736131     0.08880
Cu875      Cu  0.90488471  0.81539521  0.26852262     0.44170
Cu876      Cu  0.93016138  0.82224311  0.24544848     0.41990
Cu877      Cu  0.91254018  0.84996476  0.26225934     0.43880
N878        N  0.89548420  0.83092832  0.27781385    -0.34740
N879        N  0.89808933  0.84366921  0.27580973    -0.29000
C880        C  0.89001233  0.85095712  0.28365300    -0.05100
C881        C  0.88210634  0.84227193  0.29092134     0.07120
C882        C  0.88579701  0.82971995  0.28683398     0.00910
H883        H  0.88980765  0.86172338  0.28395113     0.08570
H884        H  0.88174285  0.82033489  0.29020300     0.07650
N885        N  0.92754895  0.85227236  0.24805435    -0.36190
N886        N  0.93375903  0.84222353  0.24221366    -0.28370
C887        C  0.94272159  0.84701750  0.23359788    -0.03610
C888        C  0.94219452  0.86069799  0.23399506     0.05000
C889        C  0.93247595  0.86377354  0.24320410     0.03090
H890        H  0.94908512  0.84095749  0.22740999     0.08200
H891        H  0.92919196  0.87360719  0.24610555     0.07030
N892        N  0.99012853  0.95291729  0.18478181    -0.27360
N893        N  0.00031003  0.95571357  0.17705770    -0.35210
C894        C  0.00154663  0.96897766  0.17604423     0.00980
C895        C  0.99174058  0.97482441  0.18367177     0.07010
C896        C  0.98456119  0.96433933  0.18894114    -0.06090
H897        H  0.00877945  0.97398398  0.16987904     0.07680
H898        H  0.97583703  0.96496274  0.19515817     0.08880
Cu899      Cu  0.01131962  0.94122548  0.16772650     0.44170
Cu900      Cu  0.98446635  0.93360086  0.18867818     0.41990
Cu901      Cu  0.00223029  0.90641589  0.17165333     0.43880
N902        N  0.02030163  0.92582585  0.15768596    -0.34740
N903        N  0.01696756  0.91313436  0.15860750    -0.29000
C904        C  0.02442406  0.90612418  0.14993731    -0.05100
C905        C  0.03295753  0.91486720  0.14346853     0.07120
C906        C  0.02991310  0.92723491  0.14860948     0.00910
H907        H  0.02348378  0.89553331  0.14824651     0.08570
H908        H  0.03421712  0.93668089  0.14576965     0.07650
N909        N  0.98745302  0.90367878  0.18603514    -0.36190
N910        N  0.98115035  0.91361405  0.19195529    -0.28370
C911        C  0.97242212  0.90868548  0.20073048    -0.03610
C912        C  0.97321335  0.89501887  0.20037903     0.05000
C913        C  0.98282467  0.89209549  0.19099843     0.03090
H914        H  0.96602058  0.91464624  0.20697496     0.08200
H915        H  0.98621233  0.88231551  0.18803718     0.07030
N916        N  0.28530275  0.25053565  0.05526104    -0.27360
N917        N  0.28259829  0.24007548  0.06269639    -0.35210
C918        C  0.26943808  0.23851365  0.06343049     0.00980
C919        C  0.26354630  0.24839279  0.05586928     0.07010
C920        C  0.27389249  0.25598518  0.05095784    -0.06090
H921        H  0.26453222  0.23092260  0.06926483     0.07680
H922        H  0.27318387  0.26478987  0.04477605     0.08880
Cu923      Cu  0.29712381  0.22901805  0.07174341     0.44170
Cu924      Cu  0.30461265  0.25606716  0.05181220     0.41990
Cu925      Cu  0.33183858  0.23743918  0.06909796     0.43880
N926        N  0.31176545  0.21993906  0.08261197    -0.34740
N927        N  0.32445085  0.22306320  0.08248575    -0.29000
C928        C  0.33062088  0.21556862  0.09182587    -0.05100
C929        C  0.32128288  0.20739651  0.09811813     0.07120
C930        C  0.30952663  0.21045057  0.09166637     0.00910
H931        H  0.34110155  0.21614599  0.09399230     0.08570
H932        H  0.29987572  0.20618769  0.09303410     0.07650
N933        N  0.33443547  0.25184208  0.05399823    -0.36190
N934        N  0.32455834  0.25831053  0.04815172    -0.28370
C935        C  0.32940000  0.26669294  0.03898088    -0.03610
C936        C  0.34299736  0.26545404  0.03874347     0.05000
C937        C  0.34590361  0.25609589  0.04854567     0.03090
H938        H  0.32336416  0.27351892  0.03326175     0.08200
H939        H  0.35564313  0.25264522  0.05147462     0.07030
N940        N  0.43623541  0.31360341  0.98924448    -0.27360
N941        N  0.43882163  0.32285797  0.98028402    -0.35210
C942        C  0.45195583  0.32481167  0.97970694     0.00980
C943        C  0.45787418  0.31628403  0.98870022     0.07010
C944        C  0.44767989  0.30930737  0.99461976    -0.06090
H945        H  0.45678198  0.33221598  0.97357373     0.07680
H946        H  0.44846201  0.30213017  0.00262222     0.08880
Cu947      Cu  0.42420281  0.33302953  0.97024471     0.44170
Cu948      Cu  0.41710661  0.30862391  0.99432106     0.41990
Cu949      Cu  0.38964213  0.32750460  0.97902179     0.43880
N950        N  0.40861530  0.34320769  0.96179105    -0.34740
N951        N  0.39597906  0.34156951  0.96489636    -0.29000
C952        C  0.38869875  0.35017320  0.95755164    -0.05100
C953        C  0.39726423  0.35743247  0.94955646     0.07120
C954        C  0.40973934  0.35272181  0.95247918     0.00910
H955        H  0.37802179  0.35105571  0.95796282     0.08570
H956        H  0.41900664  0.35602195  0.94820252     0.07650
N957        N  0.38731844  0.31253703  0.99348072    -0.36190
N958        N  0.39737335  0.30592953  0.99881506    -0.28370
C959        C  0.39278837  0.29706718  0.00767740    -0.03610
C960        C  0.37917022  0.29812614  0.00817242     0.05000
C961        C  0.37598990  0.30790181  0.99889328     0.03090
H962        H  0.39898336  0.29007182  0.01301330     0.08200
H963        H  0.36616799  0.31138749  0.99630203     0.07030
N964        N  0.24018266  0.06604559  0.19496765    -0.27360
N965        N  0.24829085  0.07601421  0.19741020    -0.35210
C966        C  0.24913494  0.07784638  0.21059272     0.00980
C967        C  0.24120434  0.06845800  0.21678343     0.07010
C968        C  0.23559979  0.06119919  0.20653098    -0.06090
H969        H  0.25487914  0.08563444  0.21523564     0.07680
H970        H  0.22873055  0.05298776  0.20738535     0.08880
Cu971      Cu  0.25775692  0.08631615  0.18252455     0.44170
Cu972      Cu  0.23590859  0.05999151  0.17592276     0.41990
Cu973      Cu  0.25297244  0.07629252  0.14799471     0.43880
N974        N  0.26758569  0.09467956  0.16668457    -0.34740
N975        N  0.26624173  0.09112359  0.15409126    -0.29000
C976        C  0.27455255  0.09858111  0.14665508    -0.05100
C977        C  0.28127721  0.10714566  0.15507677     0.07120
C978        C  0.27661709  0.10439907  0.16762548     0.00910
H979        H  0.27556412  0.09788161  0.13597246     0.08570
H980        H  0.27961658  0.10908693  0.17682037     0.07650
N981        N  0.23866413  0.06130833  0.14598088    -0.36190
N982        N  0.23268022  0.05561289  0.15620900    -0.28370
C983        C  0.22389795  0.04665441  0.15179028    -0.03610
C984        C  0.22433243  0.04647486  0.13806538     0.05000
C985        C  0.23374708  0.05600483  0.13470566     0.03090
H986        H  0.21738621  0.04100904  0.15819711     0.08200
H987        H  0.23676901  0.05890089  0.12479631     0.07030
N988        N  0.17473942  0.99694593  0.04582501    -0.27360
N989        N  0.16636323  0.98724798  0.04317591    -0.35210
C990        C  0.16538665  0.98582217  0.02994292     0.00980
C991        C  0.17368189  0.99503169  0.02400869     0.07010
C992        C  0.17934516  0.00202743  0.03437232    -0.06090
H993        H  0.15879910  0.97892364  0.02501568     0.07680
H994        H  0.18611573  0.01033530  0.03364602     0.08880
Cu995      Cu  0.15619877  0.97732104  0.05788995     0.44170
Cu996      Cu  0.17881144  0.00285386  0.06493516     0.41990
Cu997      Cu  0.16084634  0.98734675  0.09258414     0.43880
N998        N  0.14594847  0.96933206  0.07369335    -0.34740
N999        N  0.14724117  0.97290801  0.08629030    -0.29000
C1000       C  0.13862240  0.96574254  0.09365619    -0.05100
C1001       C  0.13172501  0.95735501  0.08519511     0.07120
C1002       C  0.13664592  0.95987440  0.07269516     0.00910
H1003       H  0.13748249  0.96655016  0.10431799     0.08570
H1004       H  0.13360560  0.95524365  0.06348466     0.07650
N1005       N  0.17556302  0.00189450  0.09480717    -0.36190
N1006       N  0.18185549  0.00733284  0.08462999    -0.28370
C1007       C  0.19077946  0.01611737  0.08909820    -0.03610
C1008       C  0.19012769  0.01644383  0.10280433     0.05000
C1009       C  0.18043705  0.00718055  0.10611385     0.03090
H1010       H  0.19750603  0.02157090  0.08274790     0.08200
H1011       H  0.17717711  0.00448652  0.11600364     0.07030
N1012       N  0.53462747  0.19207937  0.49155426    -0.27360
N1013       N  0.53195631  0.18346134  0.48205950    -0.35210
C1014       C  0.51878737  0.18218422  0.48087328     0.00980
C1015       C  0.51283905  0.19048178  0.49006751     0.07010
C1016       C  0.52319211  0.19653848  0.49676372    -0.06090
H1017       H  0.51395899  0.17539550  0.47409669     0.07680
H1018       H  0.52247969  0.20361925  0.50482384     0.08880
Cu1019     Cu  0.54642791  0.17354075  0.47170632     0.44170
Cu1020     Cu  0.55382483  0.19685692  0.49664072     0.41990
Cu1021     Cu  0.58104496  0.18102624  0.47777219     0.43880
N1022       N  0.56184698  0.16377995  0.46264098    -0.34740
N1023       N  0.57455251  0.16641434  0.46446551    -0.29000
C1024       C  0.58174448  0.15788239  0.45701692    -0.05100
C1025       C  0.57305564  0.14941893  0.45049683     0.07120
C1026       C  0.56057571  0.15356445  0.45419450     0.00910
H1027       H  0.59245451  0.15765020  0.45660983     0.08570
H1028       H  0.55121228  0.14940136  0.45102971     0.07650
N1029       N  0.58361161  0.19506900  0.49292604    -0.36190
N1030       N  0.57371239  0.20041779  0.49972145    -0.28370
C1031       C  0.57859199  0.20870061  0.50894427    -0.03610
C1032       C  0.59222675  0.20854449  0.50808780     0.05000
C1033       C  0.59510472  0.19995971  0.49769397     0.03090
H1034       H  0.57261261  0.21452920  0.51571263     0.08200
H1035       H  0.60482762  0.19738215  0.49396118     0.07030
N1036       N  0.68467005  0.25850668  0.55508247    -0.27360
N1037       N  0.68747596  0.26734197  0.56433922    -0.35210
C1038       C  0.70065121  0.26785707  0.56598877     0.00980
C1039       C  0.70643153  0.25881162  0.55740382     0.07010
C1040       C  0.69599016  0.25311890  0.55053502    -0.06090
H1041       H  0.70564280  0.27414938  0.57312207     0.07680
H1042       H  0.69647341  0.24577965  0.54271610     0.08880
Cu1043     Cu  0.67314231  0.27780735  0.57448138     0.44170
Cu1044     Cu  0.66548127  0.25416677  0.54971537     0.41990
Cu1045     Cu  0.63849779  0.26974116  0.56878651     0.43880
N1046       N  0.65764334  0.28683915  0.58428673    -0.34740
N1047       N  0.64497791  0.28388644  0.58261940    -0.29000
C1048       C  0.63771736  0.29160742  0.59084041    -0.05100
C1049       C  0.64631325  0.29973401  0.59787417     0.07120
C1050       C  0.65880152  0.29647049  0.59343552     0.00910
H1051       H  0.62702512  0.29140791  0.59156655     0.08570
H1052       H  0.66809286  0.30073407  0.59667532     0.07650
N1053       N  0.63575875  0.25608298  0.55330025    -0.36190
N1054       N  0.64562981  0.25081013  0.54641579    -0.28370
C1055       C  0.64073046  0.24270421  0.53705024    -0.03610
C1056       C  0.62709696  0.24289796  0.53790004     0.05000
C1057       C  0.62424841  0.25131929  0.54844316     0.03090
H1058       H  0.64669726  0.23691872  0.53023381     0.08200
H1059       H  0.61453740  0.25382230  0.55225593     0.07030
N1060       N  0.49126021  0.05252274  0.30663284    -0.27360
N1061       N  0.49962005  0.04998289  0.31640038    -0.35210
C1062       C  0.50050684  0.03676853  0.31819486     0.00980
C1063       C  0.49240547  0.03066637  0.30894832     0.07010
C1064       C  0.48656286  0.04097012  0.30188235    -0.06090
H1065       H  0.50617928  0.03209024  0.32604128     0.07680
H1066       H  0.47931709  0.04013571  0.29399511     0.08880
Cu1067     Cu  0.50908019  0.06473159  0.32683656     0.44170
Cu1068     Cu  0.48653420  0.07168919  0.30096814     0.41990
Cu1069     Cu  0.50296324  0.09938884  0.31839206     0.43880
N1070       N  0.51848783  0.08046917  0.33578976    -0.34740
N1071       N  0.51649114  0.09317573  0.33294057    -0.29000
C1072       C  0.52439472  0.10057563  0.34083123    -0.05100
C1073       C  0.53176117  0.09201455  0.34883703     0.07120
C1074       C  0.52761725  0.07940780  0.34541227     0.00910
H1075       H  0.52464830  0.11134480  0.34085340     0.08570
H1076       H  0.53100491  0.07007789  0.34962797     0.07650
N1077       N  0.48867939  0.10166142  0.30343597    -0.36190
N1078       N  0.48289876  0.09157836  0.29731146    -0.28370
C1079       C  0.47410925  0.09628839  0.28845028    -0.03610
C1080       C  0.47420436  0.11003644  0.28894131     0.05000
C1081       C  0.48364845  0.11310654  0.29853077     0.03090
H1082       H  0.46791235  0.09008319  0.28225736     0.08200
H1083       H  0.48676248  0.12290590  0.30165906     0.07030
N1084       N  0.42377927  0.20256276  0.24056349    -0.27360
N1085       N  0.41634340  0.20518556  0.23010589    -0.35210
C1086       C  0.41513731  0.21839703  0.22873848     0.00980
C1087       C  0.42213251  0.22449509  0.23889077     0.07010
C1088       C  0.42744672  0.21407378  0.24627659    -0.06090
H1089       H  0.40924832  0.22319360  0.22110805     0.07680
H1090       H  0.43294296  0.21461477  0.25546223     0.08880
Cu1091     Cu  0.40690712  0.19066503  0.21932550     0.44170
Cu1092     Cu  0.42790179  0.18328814  0.24628623     0.41990
Cu1093     Cu  0.41153857  0.15593459  0.22815345     0.43880
N1094       N  0.39616800  0.17537255  0.21112388    -0.34740
N1095       N  0.39764557  0.16262256  0.21413390    -0.29000
C1096       C  0.38883578  0.15553451  0.20695421    -0.05100
C1097       C  0.38151897  0.16435804  0.19925655     0.07120
C1098       C  0.38643847  0.17678336  0.20213360     0.00910
H1099       H  0.38779570  0.14482287  0.20734572     0.08570
H1100       H  0.38319543  0.18619373  0.19798712     0.07650
N1101       N  0.42617436  0.15335291  0.24274641    -0.36190
N1102       N  0.43185431  0.16333740  0.24912287    -0.28370
C1103       C  0.44085006  0.15852102  0.25769646    -0.03610
C1104       C  0.44098737  0.14479597  0.25680867     0.05000
C1105       C  0.43148395  0.14184685  0.24722803     0.03090
H1106       H  0.44697369  0.16465910  0.26402715     0.08200
H1107       H  0.42845973  0.13208886  0.24388994     0.07030
C1108       C  0.33031546  0.16744852  0.13940742     0.03060
C1109       C  0.32128621  0.15680847  0.13975112    -0.13090
C1110       C  0.32180582  0.14718791  0.14987527     0.00560
C1111       C  0.33151728  0.14827931  0.15980630    -0.11610
C1112       C  0.34097651  0.15848594  0.15929444     0.03050
C1113       C  0.34024193  0.16815770  0.14918187    -0.11030
H1114       H  0.31366813  0.15610731  0.13218023     0.08650
H1115       H  0.33167695  0.14130214  0.16803004     0.06180
H1116       H  0.34719308  0.17636395  0.14914943     0.06030
C1117       C  0.57052262  0.09898135  0.39043373     0.03060
C1118       C  0.56980665  0.10869905  0.40037905    -0.13090
C1119       C  0.57943802  0.10911610  0.41041326     0.00560
C1120       C  0.58972467  0.09972868  0.41053868    -0.11610
C1121       C  0.59079319  0.09021206  0.40036405     0.03050
C1122       C  0.58104193  0.08982448  0.39039582    -0.11030
H1123       H  0.56170991  0.11581039  0.40039562     0.08650
H1124       H  0.59697451  0.09992229  0.41849423     0.06180
H1125       H  0.58159116  0.08237775  0.38263023     0.06030
N1126       N  0.74021059  0.94421503  0.29510970    -0.27360
N1127       N  0.74922219  0.93505939  0.29247747    -0.35210
C1128       C  0.74958882  0.93292071  0.27933533     0.00980
C1129       C  0.74023687  0.94103644  0.27338847     0.07010
C1130       C  0.73456267  0.94822627  0.28365693    -0.06090
H1131       H  0.75602662  0.92580173  0.27448723     0.07680
H1132       H  0.72686562  0.95570723  0.28288647     0.08880
Cu1133     Cu  0.76000642  0.92544850  0.30693748     0.44170
Cu1134     Cu  0.73598161  0.94989326  0.31433919     0.41990
Cu1135     Cu  0.75201472  0.93090071  0.34153507     0.43880
N1136       N  0.76887667  0.91531747  0.32233136    -0.34740
N1137       N  0.76596159  0.91690296  0.33505098    -0.29000
C1138       C  0.77337821  0.90830692  0.34224577    -0.05100
C1139       C  0.78122694  0.90109916  0.33352272     0.07120
C1140       C  0.77815087  0.90582704  0.32104942     0.00910
H1141       H  0.77309472  0.90738413  0.35295997     0.08570
H1142       H  0.78226008  0.90252348  0.31168303     0.07650
N1143       N  0.73812707  0.94617702  0.34421254    -0.36190
N1144       N  0.73264280  0.95296782  0.33434209    -0.28370
C1145       C  0.72410310  0.96190076  0.33932816    -0.03610
C1146       C  0.72415114  0.96084866  0.35302220     0.05000
C1147       C  0.73311508  0.95068223  0.35578647     0.03090
H1148       H  0.71816087  0.96861865  0.33335936     0.08200
H1149       H  0.73547886  0.94644210  0.36537784     0.07030
N1150       N  0.67317110  0.00849953  0.44506947    -0.27360
N1151       N  0.66666175  0.01964508  0.44742938    -0.35210
C1152       C  0.66565460  0.02140259  0.46058846     0.00980
C1153       C  0.67180314  0.01080676  0.46695005     0.07010
C1154       C  0.67644852  0.00277363  0.45672993    -0.06090
H1155       H  0.66053425  0.02969026  0.46514200     0.07680
H1156       H  0.68138127  0.99324560  0.45760509     0.08880
Cu1157     Cu  0.65805497  0.03112041  0.43279360     0.44170
Cu1158     Cu  0.67681937  0.00195063  0.42595410     0.41990
Cu1159     Cu  0.66103089  0.02081520  0.39869256     0.43880
N1160       N  0.64713280  0.03937035  0.41755629    -0.34740
N1161       N  0.64777594  0.03546503  0.40502627    -0.29000
C1162       C  0.63872128  0.04235491  0.39791167    -0.05100
C1163       C  0.63216793  0.05092169  0.40647406     0.07120
C1164       C  0.63779374  0.04881894  0.41878235     0.00910
H1165       H  0.63704087  0.04122766  0.38735031     0.08570
H1166       H  0.63514515  0.05364665  0.42801578     0.07650
N1167       N  0.67519648  0.00585598  0.39610015    -0.36190
N1168       N  0.68063488  0.99903803  0.40597415    -0.28370
C1169       C  0.68950987  0.99041546  0.40100269    -0.03610
C1170       C  0.68969680  0.99171729  0.38732112     0.05000
C1171       C  0.68055090  0.00170602  0.38456046     0.03090
H1172       H  0.69548589  0.98372001  0.40696203     0.08200
H1173       H  0.67825961  0.00606147  0.37500391     0.07030
C1174       C  0.82095167  0.86000998  0.33863581     0.03060
C1175       C  0.83046282  0.85862044  0.32854607    -0.13090
C1176       C  0.84036236  0.84888078  0.32952171     0.00560
C1177       C  0.84054917  0.84016858  0.34042028    -0.11610
C1178       C  0.83080427  0.84105178  0.35034399     0.03050
C1179       C  0.82093834  0.85092280  0.34928504    -0.11030
H1180       H  0.83014404  0.86501600  0.31986723     0.08650
H1181       H  0.84822839  0.83263246  0.34110716     0.06180
H1182       H  0.81330948  0.85161144  0.35683422     0.06030
N1183       N  0.78531735  0.76101589  0.43458349    -0.27360
N1184       N  0.78276077  0.77049236  0.42583156    -0.35210
C1185       C  0.76961298  0.77151220  0.42416088     0.00980
C1186       C  0.76355869  0.76231825  0.43237757     0.07010
C1187       C  0.77381561  0.75572169  0.43877226    -0.06090
H1188       H  0.76483020  0.77815779  0.41715404     0.07680
H1189       H  0.77300582  0.74734648  0.44550770     0.08880
Cu1190     Cu  0.79726200  0.78079366  0.41580274     0.44170
Cu1191     Cu  0.80444873  0.75542585  0.43934989     0.41990
Cu1192     Cu  0.83163951  0.77250722  0.42180076     0.43880
N1193       N  0.81278124  0.78953674  0.40582140    -0.34740
N1194       N  0.82542042  0.78658214  0.40774487    -0.29000
C1195       C  0.83278733  0.79395862  0.39931406    -0.05100
C1196       C  0.82428062  0.80184530  0.39185105     0.07120
C1197       C  0.81173038  0.79880940  0.39624769     0.00910
H1198       H  0.84348041  0.79359600  0.39864834     0.08570
H1199       H  0.80247974  0.80295241  0.39267533     0.07650
N1200       N  0.83423712  0.75769444  0.43624238    -0.36190
N1201       N  0.82435100  0.75157310  0.44234713    -0.28370
C1202       C  0.82928244  0.74250803  0.45085412    -0.03610
C1203       C  0.84293873  0.74275252  0.45006317     0.05000
C1204       C  0.84575916  0.75264946  0.44082844     0.03090
H1205       H  0.82332350  0.73615386  0.45715501     0.08200
H1206       H  0.85546518  0.75600078  0.43773806     0.07030
N1207       N  0.93613058  0.69375895  0.49849094    -0.27360
N1208       N  0.93881449  0.68607504  0.50879572    -0.35210
C1209       C  0.95196491  0.68439801  0.50970366     0.00980
C1210       C  0.95790300  0.69143472  0.49948111     0.07010
C1211       C  0.94752220  0.69719084  0.49248039    -0.06090
H1212       H  0.95682374  0.67818297  0.51704318     0.07680
H1213       H  0.94803574  0.70281103  0.48332734     0.08880
Cu1214     Cu  0.92434306  0.67713995  0.52008890     0.44170
Cu1215     Cu  0.91694335  0.69834334  0.49313978     0.41990
Cu1216     Cu  0.88982331  0.68122200  0.51084248     0.43880
N1217       N  0.90904337  0.66683189  0.52884093    -0.34740
N1218       N  0.89641926  0.66784138  0.52545552    -0.29000
C1219       C  0.88941770  0.65901615  0.53275405    -0.05100
C1220       C  0.89810777  0.65232136  0.54120219     0.07120
C1221       C  0.91042925  0.65750087  0.53829154     0.00910
H1222       H  0.87886846  0.65738602  0.53177656     0.08570
H1223       H  0.91981842  0.65452609  0.54258526     0.07650
N1224       N  0.88717679  0.69621376  0.49653108    -0.36190
N1225       N  0.89706932  0.70227329  0.49037465    -0.28370
C1226       C  0.89218864  0.71154361  0.48207588    -0.03610
C1227       C  0.87854976  0.71151548  0.48303217     0.05000
C1228       C  0.87567867  0.70153248  0.49217313     0.03090
H1229       H  0.89817974  0.71789088  0.47579831     0.08200
H1230       H  0.86595610  0.69829817  0.49533357     0.07030
N1231       N  0.79763180  0.50942418  0.54576102    -0.27360
N1232       N  0.80493679  0.52000106  0.54323766    -0.35210
C1233       C  0.80572988  0.52178138  0.53005016     0.00980
C1234       C  0.79847714  0.51187366  0.52390599     0.07010
C1235       C  0.79357839  0.50410121  0.53419237    -0.06090
H1236       H  0.81155654  0.52945395  0.52527579     0.07680
H1237       H  0.78794938  0.49498681  0.53333171     0.08880
Cu1238     Cu  0.81454966  0.53056380  0.55781374     0.44170
Cu1239     Cu  0.79428518  0.50298708  0.56496849     0.41990
Cu1240     Cu  0.81065172  0.52120758  0.59237653     0.43880
N1241       N  0.82530665  0.53885833  0.57304878    -0.34740
N1242       N  0.82427655  0.53551000  0.58573665    -0.29000
C1243       C  0.83321598  0.54263467  0.59273689    -0.05100
C1244       C  0.84002682  0.55077460  0.58392920     0.07120
C1245       C  0.83475834  0.54811229  0.57160405     0.00910
H1246       H  0.83462913  0.54196798  0.60338051     0.08570
H1247       H  0.83765673  0.55250925  0.56221751     0.07650
N1248       N  0.79645828  0.50615748  0.59491509    -0.36190
N1249       N  0.79096046  0.49958173  0.58494657    -0.28370
C1250       C  0.78233192  0.49065830  0.58978497    -0.03610
C1251       C  0.78234853  0.49145566  0.60348217     0.05000
C1252       C  0.79131135  0.50153369  0.60640895     0.03090
H1253       H  0.77635094  0.48412360  0.58371547     0.08200
H1254       H  0.79374810  0.50536853  0.61615107     0.07030
N1255       N  0.73144806  0.44342587  0.69547626    -0.27360
N1256       N  0.72302101  0.43377047  0.69813163    -0.35210
C1257       C  0.72267322  0.43171334  0.71129902     0.00980
C1258       C  0.73137945  0.44048939  0.71727152     0.07010
C1259       C  0.73674334  0.44783457  0.70691044    -0.06090
H1260       H  0.71672599  0.42416880  0.71612408     0.07680
H1261       H  0.74390259  0.45580156  0.70756507     0.08880
Cu1262     Cu  0.71279959  0.42372013  0.68361800     0.44170
Cu1263     Cu  0.73537258  0.44938103  0.67627506     0.41990
Cu1264     Cu  0.71994099  0.43059181  0.64886354     0.43880
N1265       N  0.70358158  0.41424041  0.66806740    -0.34740
N1266       N  0.70617419  0.41630404  0.65533253    -0.29000
C1267       C  0.69838746  0.40816640  0.64806184    -0.05100
C1268       C  0.69052514  0.40086799  0.65672396     0.07120
C1269       C  0.69411727  0.40495716  0.66926938     0.00910
H1270       H  0.69830713  0.40773089  0.63731623     0.08570
H1271       H  0.69015394  0.40142276  0.67862440     0.07650
N1272       N  0.73352378  0.44624139  0.64635768    -0.36190
N1273       N  0.73874517  0.45295434  0.65638053    -0.28370
C1274       C  0.74705638  0.46222559  0.65164777    -0.03610
C1275       C  0.74711182  0.46153037  0.63795226     0.05000
C1276       C  0.73851484  0.45116247  0.63491192     0.03090
H1277       H  0.75280255  0.46890393  0.65778952     0.08200
H1278       H  0.73627475  0.44730665  0.62513105     0.07030
C1279       C  0.65174464  0.35891409  0.64977404     0.03060
C1280       C  0.64212749  0.35790432  0.65988143    -0.13090
C1281       C  0.63180411  0.34864049  0.65898765     0.00560
C1282       C  0.63133450  0.33988703  0.64818204    -0.11610
C1283       C  0.64090911  0.34047189  0.63806932     0.03050
C1284       C  0.65096419  0.35016056  0.63887537    -0.11030
H1285       H  0.64256775  0.36441409  0.66844871     0.08650
H1286       H  0.62342013  0.33262874  0.64763940     0.06180
H1287       H  0.65796985  0.35099263  0.63084229     0.06030
C1288       C  0.89255014  0.60915389  0.57894219     0.03060
C1289       C  0.90173379  0.60906772  0.58941541    -0.13090
C1290       C  0.90190918  0.59861433  0.59871906     0.00560
C1291       C  0.89216995  0.58863440  0.59785872    -0.11610
C1292       C  0.88265487  0.58883760  0.58764489     0.03050
C1293       C  0.88295724  0.59913005  0.57816406    -0.11030
H1294       H  0.90861143  0.61726086  0.59032029     0.08650
H1295       H  0.89195668  0.58068834  0.60516547     0.06180
H1296       H  0.87578998  0.59929112  0.57013188     0.06030
N1297       N  0.92548489  0.30222118  0.74767336    -0.27360
N1298       N  0.91585273  0.30002674  0.75621087    -0.35210
C1299       C  0.91393517  0.28691195  0.75749289     0.00980
C1300       C  0.92276843  0.28038427  0.74924272     0.07010
C1301       C  0.92997605  0.29045259  0.74311029    -0.06090
H1302       H  0.90652530  0.28250047  0.76388932     0.07680
H1303       H  0.93757247  0.28938525  0.73560822     0.08880
Cu1304     Cu  0.90565905  0.31508891  0.76526204     0.44170
Cu1305     Cu  0.93102695  0.32151344  0.74330426     0.41990
Cu1306     Cu  0.91602003  0.34914298  0.76396474     0.43880
N1307       N  0.89696983  0.32986778  0.77614633    -0.34740
N1308       N  0.90095216  0.34234396  0.77671685    -0.29000
C1309       C  0.89359277  0.34864236  0.78603073    -0.05100
C1310       C  0.88462580  0.33956120  0.79154563     0.07120
C1311       C  0.88701046  0.32790109  0.78465101     0.00910
H1312       H  0.89476974  0.35900107  0.78869061     0.08570
H1313       H  0.88193959  0.31853361  0.78537124     0.07650
N1314       N  0.92992138  0.35148733  0.74851824    -0.36190
N1315       N  0.93481251  0.34163758  0.74126209    -0.28370
C1316       C  0.94306226  0.34662401  0.73208276    -0.03610
C1317       C  0.94356660  0.36029878  0.73345038     0.05000
C1318       C  0.93511550  0.36303020  0.74404807     0.03090
H1319       H  0.94825324  0.34062434  0.72483457     0.08200
H1320       H  0.93300285  0.37264390  0.74837684     0.07030
N1321       N  0.99224836  0.45320030  0.68369766    -0.27360
N1322       N  0.00035954  0.45582886  0.67376574    -0.35210
C1323       C  0.00069472  0.46901205  0.67171703     0.00980
C1324       C  0.99228789  0.47502034  0.68075372     0.07010
C1325       C  0.98714369  0.46468153  0.68829203    -0.06090
H1326       H  0.00649017  0.47385607  0.66406634     0.07680
H1327       H  0.98040634  0.46534963  0.69660455     0.08880
Cu1328     Cu  0.01039575  0.44131708  0.66350094     0.44170
Cu1329     Cu  0.98849563  0.43395611  0.68979231     0.41990
Cu1330     Cu  0.00371700  0.40659258  0.67063009     0.43880
N1331       N  0.02007435  0.42579008  0.65442500    -0.34740
N1332       N  0.01779475  0.41302929  0.65675705    -0.29000
C1333       C  0.02601156  0.40574162  0.64906339    -0.05100
C1334       C  0.03375563  0.41444504  0.64171695     0.07120
C1335       C  0.02970303  0.42700735  0.64532723     0.00910
H1336       H  0.02634849  0.39497757  0.64885781     0.08570
H1337       H  0.03346054  0.43638084  0.64159845     0.07650
N1338       N  0.98988288  0.40405117  0.68594672    -0.36190
N1339       N  0.98483004  0.41398772  0.69292064    -0.28370
C1340       C  0.97649347  0.40911782  0.70209051    -0.03610
C1341       C  0.97613037  0.39539531  0.70097239     0.05000
C1342       C  0.98473495  0.39254802  0.69052929     0.03090
H1343       H  0.97110435  0.41522172  0.70910165     0.08200
H1344       H  0.98694920  0.38289843  0.68633625     0.07030
N1345       N  0.68632011  0.75446551  0.05823123    -0.27360
N1346       N  0.68899561  0.76569241  0.06441714    -0.35210
C1347       C  0.70216274  0.76725966  0.06501964     0.00980
C1348       C  0.70813447  0.75646405  0.05888312     0.07010
C1349       C  0.69772120  0.74847506  0.05476821    -0.06090
H1350       H  0.70703176  0.77549223  0.06991172     0.07680
H1351       H  0.69821820  0.73876047  0.05023743     0.08880
Cu1352     Cu  0.67459059  0.77731543  0.07307525     0.44170
Cu1353     Cu  0.66717825  0.74822638  0.05518267     0.41990
Cu1354     Cu  0.64011898  0.76729903  0.07068687     0.43880
N1355       N  0.65956296  0.78581670  0.08400315    -0.34740
N1356       N  0.64700000  0.78208512  0.08369612    -0.29000
C1357       C  0.64021655  0.78937609  0.09269897    -0.05100
C1358       C  0.64898328  0.79813485  0.09871635     0.07120
C1359       C  0.66111551  0.79552050  0.09300542     0.00910
H1360       H  0.62970649  0.78849302  0.09460625     0.08570
H1361       H  0.67045448  0.80025755  0.09531801     0.07650
N1362       N  0.63749163  0.75248853  0.05620915    -0.36190
N1363       N  0.64741660  0.74572740  0.05088137    -0.28370
C1364       C  0.64270950  0.73725727  0.04175103    -0.03610
C1365       C  0.62912033  0.73868655  0.04110024     0.05000
C1366       C  0.62611291  0.74835071  0.05052337     0.03090
H1367       H  0.64881659  0.73042325  0.03614177     0.08200
H1368       H  0.61638881  0.75219090  0.05295260     0.07030
N1369       N  0.53549202  0.69163700  0.99278370    -0.27360
N1370       N  0.53275136  0.68140278  0.98510601    -0.35210
C1371       C  0.51958625  0.68022482  0.98387655     0.00980
C1372       C  0.51374571  0.69032580  0.99110993     0.07010
C1373       C  0.52410366  0.69728481  0.99682536    -0.06090
H1374       H  0.51464241  0.67245042  0.97834975     0.07680
H1375       H  0.52341531  0.70572693  0.00345405     0.08880
Cu1376     Cu  0.54732945  0.66988340  0.97692404     0.44170
Cu1377     Cu  0.55482555  0.69654992  0.99687479     0.41990
Cu1378     Cu  0.58225166  0.67736171  0.98055909     0.43880
N1379       N  0.56208380  0.66009744  0.96700520    -0.34740
N1380       N  0.57486884  0.66260844  0.96768433    -0.29000
C1381       C  0.58109414  0.65451637  0.95895844    -0.05100
C1382       C  0.57169860  0.64653125  0.95244475     0.07120
C1383       C  0.55978628  0.65057806  0.95807093     0.00910
H1384       H  0.59168695  0.65460353  0.95741136     0.08570
H1385       H  0.54986292  0.64740637  0.95604343     0.07650
N1386       N  0.58469401  0.69255974  0.99478340    -0.36190
N1387       N  0.57475016  0.69917096  0.00029937    -0.28370
C1388       C  0.57949714  0.70796462  0.00907929    -0.03610
C1389       C  0.59311764  0.70690139  0.00939206     0.05000
C1390       C  0.59611495  0.69712977  0.00006639     0.03090
H1391       H  0.57335786  0.71475036  0.01470922     0.08200
H1392       H  0.60586542  0.69347080  0.99747377     0.07030
N1393       N  0.74236756  0.44294205  0.79519069    -0.27360
N1394       N  0.75136048  0.43382538  0.79238006    -0.35210
C1395       C  0.75180343  0.43202190  0.77917759     0.00980
C1396       C  0.74247831  0.44030489  0.77344738     0.07010
C1397       C  0.73671336  0.44718889  0.78384222    -0.06090
H1398       H  0.75808682  0.42487089  0.77417764     0.07680
H1399       H  0.72881390  0.45446801  0.78323356     0.08880
Cu1400     Cu  0.76156926  0.42364154  0.80685032     0.44170
Cu1401     Cu  0.73805478  0.44814727  0.81448684     0.41990
Cu1402     Cu  0.75462310  0.43002339  0.84183384     0.43880
N1403       N  0.77054360  0.41368279  0.82227791    -0.34740
N1404       N  0.76840995  0.41586621  0.83506945    -0.29000
C1405       C  0.77627781  0.40756686  0.84214898    -0.05100
C1406       C  0.78358931  0.39991586  0.83328124     0.07120
C1407       C  0.77959886  0.40401071  0.82084578     0.00910
H1408       H  0.77661528  0.40708176  0.85289060     0.08570
H1409       H  0.78312218  0.40031049  0.81138753     0.07650
N1410       N  0.73999729  0.44473265  0.84439017    -0.36190
N1411       N  0.73430251  0.45113230  0.83437815    -0.28370
C1412       C  0.72541866  0.45986339  0.83910737    -0.03610
C1413       C  0.72522725  0.45888793  0.85278721     0.05000
C1414       C  0.73475145  0.44933372  0.85583882     0.03090
H1415       H  0.71983729  0.46668105  0.83293597     0.08200
H1416       H  0.73758587  0.44593718  0.86565545     0.07030
N1417       N  0.67599304  0.50778749  0.94637208    -0.27360
N1418       N  0.66796696  0.51789397  0.94870849    -0.35210
C1419       C  0.66597786  0.51896590  0.96184596     0.00980
C1420       C  0.67304222  0.50893632  0.96807127     0.07010
C1421       C  0.67941538  0.50211342  0.95799406    -0.06090
H1422       H  0.65973930  0.52641441  0.96643356     0.07680
H1423       H  0.68566484  0.49339962  0.95899710     0.08880
Cu1424     Cu  0.65910770  0.52866741  0.93377143     0.44170
Cu1425     Cu  0.68092565  0.50217052  0.92732013     0.41990
Cu1426     Cu  0.66392950  0.51901515  0.89936266     0.43880
N1427       N  0.64842623  0.53645488  0.91819260    -0.34740
N1428       N  0.64966396  0.53292063  0.90559123    -0.29000
C1429       C  0.64061127  0.53975299  0.89836832    -0.05100
C1430       C  0.63343308  0.54783310  0.90696033     0.07120
C1431       C  0.63874982  0.54553456  0.91935842     0.00910
H1432       H  0.63945260  0.53903795  0.88770024     0.08570
H1433       H  0.63575882  0.55010781  0.92861730     0.07650
N1434       N  0.67919892  0.50490767  0.89733687    -0.36190
N1435       N  0.68506211  0.49894761  0.90752002    -0.28370
C1436       C  0.69427221  0.49042449  0.90302038    -0.03610
C1437       C  0.69448495  0.49108684  0.88931279     0.05000
C1438       C  0.68465934  0.50024447  0.88602561     0.03090
H1439       H  0.69998542  0.48388705  0.90936590     0.08200
H1440       H  0.68169152  0.50326162  0.87612609     0.07030
C1441       C  0.84377843  0.34837575  0.83196237     0.03060
C1442       C  0.83340851  0.35766103  0.83009603    -0.13090
C1443       C  0.82299898  0.35860986  0.83931162     0.00560
C1444       C  0.82237686  0.34970843  0.84999648    -0.11610
C1445       C  0.83236206  0.34020317  0.85189005     0.03050
C1446       C  0.84320206  0.33988932  0.84319162    -0.11030
H1447       H  0.83310789  0.36396126  0.82136774     0.08650
H1448       H  0.81402508  0.35007886  0.85676362     0.06180
H1449       H  0.85096731  0.33267815  0.84507993     0.06030
N1450       N  0.78481622  0.25748609  0.93378385    -0.27360
N1451       N  0.78208175  0.26747504  0.92570612    -0.35210
C1452       C  0.76889074  0.26889901  0.92475992     0.00980
C1453       C  0.76299987  0.25949636  0.93291035     0.07010
C1454       C  0.77342519  0.25231007  0.93835211    -0.06090
H1455       H  0.76397263  0.27602880  0.91834716     0.07680
H1456       H  0.77278574  0.24385556  0.94500564     0.08880
Cu1457     Cu  0.79661429  0.27819866  0.91624282     0.44170
Cu1458     Cu  0.80403664  0.25162418  0.93760171     0.41990
Cu1459     Cu  0.83138694  0.26980840  0.92124335     0.43880
N1460       N  0.81195732  0.28702817  0.90613053    -0.34740
N1461       N  0.82464657  0.28398229  0.90738163    -0.29000
C1462       C  0.83156390  0.29141397  0.89859013    -0.05100
C1463       C  0.82271088  0.29932676  0.89144256     0.07120
C1464       C  0.81044902  0.29640996  0.89676685     0.00910
H1465       H  0.84221074  0.29102213  0.89739460     0.08570
H1466       H  0.80104516  0.30097127  0.89439493     0.07650
N1467       N  0.83384713  0.25510775  0.93596747    -0.36190
N1468       N  0.82388845  0.24852107  0.94141714    -0.28370
C1469       C  0.82860899  0.23971489  0.95029153    -0.03610
C1470       C  0.84225018  0.24086108  0.95081154     0.05000
C1471       C  0.84522938  0.25062845  0.94143531     0.03090
H1472       H  0.82241061  0.23276409  0.95558039     0.08200
H1473       H  0.85497806  0.25424953  0.93882665     0.07030
N1474       N  0.93696109  0.19253038  0.00001863    -0.27360
N1475       N  0.93949774  0.18319586  0.00891091    -0.35210
C1476       C  0.95265814  0.18160932  0.00999954     0.00980
C1477       C  0.95871544  0.19044845  0.00137126     0.07010
C1478       C  0.94844845  0.19714287  0.99510747    -0.06090
H1479       H  0.95740567  0.17430574  0.01634060     0.07680
H1480       H  0.94925174  0.20477440  0.98754192     0.08880
Cu1481     Cu  0.92480484  0.17298379  0.01871892     0.44170
Cu1482     Cu  0.91790075  0.19800965  0.99509947     0.41990
Cu1483     Cu  0.89030555  0.17933662  0.01004941     0.43880
N1484       N  0.90902049  0.16367851  0.02770210    -0.34740
N1485       N  0.89640623  0.16555871  0.02459572    -0.29000
C1486       C  0.88895481  0.15766990  0.03250208    -0.05100
C1487       C  0.89736612  0.15075916  0.04100386     0.07120
C1488       C  0.90995627  0.15477510  0.03762093     0.00910
H1489       H  0.87825183  0.15715899  0.03223743     0.08570
H1490       H  0.91916723  0.15145084  0.04204595     0.07650
N1491       N  0.88811421  0.19457686  0.99584033    -0.36190
N1492       N  0.89819449  0.20131412  0.99082420    -0.28370
C1493       C  0.89366887  0.21054663  0.98228176    -0.03610
C1494       C  0.88002676  0.20955374  0.98156048     0.05000
C1495       C  0.87683962  0.19940884  0.99044900     0.03090
H1496       H  0.89998009  0.21767533  0.97736958     0.08200
H1497       H  0.86702352  0.19578279  0.99278168     0.07030
N1498       N  0.73291649  0.94167654  0.19496909    -0.27360
N1499       N  0.72572832  0.93110772  0.19775377    -0.35210
C1500       C  0.72491329  0.92968125  0.21098951     0.00980
C1501       C  0.73212933  0.93980195  0.21680739     0.07010
C1502       C  0.73702426  0.94730463  0.20634965    -0.06090
H1503       H  0.71961620  0.92177344  0.21600007     0.07680
H1504       H  0.74290229  0.95627001  0.20689175     0.08880
Cu1505     Cu  0.71740216  0.91975830  0.18302319     0.44170
Cu1506     Cu  0.73623423  0.94726597  0.17561360     0.41990
Cu1507     Cu  0.71804504  0.93049847  0.14823351     0.43880
N1508       N  0.70662370  0.91106807  0.16809001    -0.34740
N1509       N  0.70583219  0.91511429  0.15560898    -0.29000
C1510       C  0.69645943  0.90771584  0.14947145    -0.05100
C1511       C  0.69112740  0.89869911  0.15862913     0.07120
C1512       C  0.69817670  0.90105071  0.17016992     0.00910
H1513       H  0.69358376  0.90893861  0.13917718     0.08570
H1514       H  0.69754981  0.89591143  0.17953719     0.07650
N1515       N  0.73252785  0.94545418  0.14567300    -0.36190
N1516       N  0.73884224  0.95110909  0.15571658    -0.28370
C1517       C  0.74766100  0.95990534  0.15107021    -0.03610
C1518       C  0.74693639  0.96013557  0.13737674     0.05000
C1519       C  0.73730795  0.95070236  0.13425717     0.03090
H1520       H  0.75437916  0.96544145  0.15733647     0.08200
H1521       H  0.73404162  0.94786184  0.12441959     0.07030
N1522       N  0.79595424  0.00784117  0.04430430    -0.27360
N1523       N  0.80572687  0.01602873  0.04151356    -0.35210
C1524       C  0.80783633  0.01604784  0.02836820     0.00980
C1525       C  0.79890767  0.00739378  0.02250901     0.07010
C1526       C  0.79141536  0.00242903  0.03297683    -0.06090
H1527       H  0.81549526  0.02176265  0.02346984     0.07680
H1528       H  0.78322019  0.99556731  0.03256567     0.08880
Cu1529     Cu  0.81559424  0.02628560  0.05605190     0.44170
Cu1530     Cu  0.79061400  0.00427108  0.06370051     0.41990
Cu1531     Cu  0.81087061  0.01900205  0.09114240     0.43880
N1532       N  0.82577181  0.03553293  0.07105050    -0.34740
N1533       N  0.82482919  0.03288419  0.08387882    -0.29000
C1534       C  0.83373100  0.04058999  0.09033824    -0.05100
C1535       C  0.84057543  0.04834548  0.08103731     0.07120
C1536       C  0.83490987  0.04493248  0.06900255     0.00910
H1537       H  0.83518156  0.04051553  0.10099540     0.08570
H1538       H  0.83681901  0.04907146  0.05932312     0.07650
N1539       N  0.79539144  0.00504531  0.09359653    -0.36190
N1540       N  0.78838174  0.00012775  0.08361374    -0.28370
C1541       C  0.77943110  0.99147068  0.08829093    -0.03610
C1542       C  0.78073838  0.99064977  0.10191004     0.05000
C1543       C  0.79086697  0.99953080  0.10499013     0.03090
H1544       H  0.77231811  0.98632366  0.08212555     0.08200
H1545       H  0.79472330  0.00172606  0.11477993     0.07030
C1546       C  0.89086943  0.10925506  0.08053741     0.03060
C1547       C  0.88050387  0.09991232  0.08061190    -0.13090
C1548       C  0.88041634  0.08927873  0.08971963     0.00560
C1549       C  0.89062103  0.08820699  0.09915153    -0.11610
C1550       C  0.90088289  0.09763949  0.09949389     0.03050
C1551       C  0.90089875  0.10812484  0.09021837    -0.11030
H1552       H  0.87248590  0.10077790  0.07349736     0.08650
H1553       H  0.89071623  0.07989201  0.10604204     0.06180
H1554       H  0.90894115  0.11525030  0.09041444     0.06030
C1555       C  0.65056368  0.85795155  0.15067327     0.03060
C1556       C  0.65268566  0.84690337  0.14235076    -0.13090
C1557       C  0.64306180  0.83684968  0.14103296     0.00560
C1558       C  0.63164180  0.83738093  0.14903278    -0.11610
C1559       C  0.62963455  0.84793338  0.15798630     0.03050
C1560       C  0.63882209  0.85840447  0.15822449    -0.11030
H1561       H  0.66186478  0.84599683  0.13687141     0.08650
H1562       H  0.62442080  0.82946905  0.14838874     0.06180
H1563       H  0.63681543  0.86689636  0.16452676     0.06030
N1564       N  0.54701880  0.80280407  0.23887139    -0.27360
N1565       N  0.55651213  0.80030446  0.23020863    -0.35210
C1566       C  0.55899757  0.78717781  0.23006824     0.00980
C1567       C  0.55065589  0.78117396  0.23914089     0.07010
C1568       C  0.54308276  0.79130979  0.24447127    -0.06090
H1569       H  0.56653705  0.78241403  0.22408070     0.07680
H1570       H  0.53567023  0.79046942  0.25219298     0.08880
Cu1571     Cu  0.56605843  0.81506983  0.21979326     0.44170
Cu1572     Cu  0.54114003  0.82194024  0.24322600     0.41990
Cu1573     Cu  0.55915971  0.84977272  0.22757593     0.43880
N1574       N  0.57531556  0.83087787  0.21071134    -0.34740
N1575       N  0.57323113  0.84357970  0.21350954    -0.29000
C1576       C  0.58130087  0.85101825  0.20579049    -0.05100
C1577       C  0.58867092  0.84248463  0.19783965     0.07120
C1578       C  0.58456561  0.82986442  0.20119939     0.00910
H1579       H  0.58172883  0.86177928  0.20589630     0.08570
H1580       H  0.58813688  0.82057003  0.19710942     0.07650
N1581       N  0.54394526  0.85193676  0.24164574    -0.36190
N1582       N  0.53756849  0.84176805  0.24702646    -0.28370
C1583       C  0.52850730  0.84630392  0.25565743    -0.03610
C1584       C  0.52897654  0.86004649  0.25575016     0.05000
C1585       C  0.53898891  0.86328567  0.24681527     0.03090
H1586       H  0.52230793  0.83994351  0.26169972     0.08200
H1587       H  0.54240661  0.87316492  0.24425113     0.07030
N1588       N  0.48124412  0.95299573  0.30601906    -0.27360
N1589       N  0.47187199  0.95571172  0.31473057    -0.35210
C1590       C  0.47065399  0.96896075  0.31590570     0.00980
C1591       C  0.47961483  0.97487719  0.30734635     0.07010
C1592       C  0.48630340  0.96445113  0.30135514    -0.06090
H1593       H  0.46400778  0.97390439  0.32274997     0.07680
H1594       H  0.49435880  0.96513417  0.29429417     0.08880
Cu1595     Cu  0.46181621  0.94106760  0.32480013     0.44170
Cu1596     Cu  0.48657848  0.93372257  0.30161771     0.41990
Cu1597     Cu  0.46971198  0.90609427  0.31893949     0.43880
N1598       N  0.45288067  0.92547815  0.33453200    -0.34740
N1599       N  0.45557002  0.91270911  0.33276046    -0.29000
C1600       C  0.44796280  0.90555732  0.34119903    -0.05100
C1601       C  0.44007892  0.91432930  0.34842415     0.07120
C1602       C  0.44360958  0.92681280  0.34396240     0.00910
H1603       H  0.44830294  0.89483060  0.34216728     0.08570
H1604       H  0.43977471  0.93626381  0.34741187     0.07650
N1605       N  0.48441156  0.90373123  0.30434128    -0.36190
N1606       N  0.49036628  0.91384419  0.29838811    -0.28370
C1607       C  0.49923275  0.90921418  0.28961157    -0.03610
C1608       C  0.49904737  0.89547938  0.28998142     0.05000
C1609       C  0.48941704  0.89231613  0.29935129     0.03090
H1610       H  0.50513490  0.91548449  0.28318282     0.08200
H1611       H  0.48632040  0.88244994  0.30234756     0.07030
N1612       N  0.28728587  0.74758117  0.55386250    -0.27360
N1613       N  0.28463181  0.73934548  0.56372824    -0.35210
C1614       C  0.27154923  0.73922118  0.56593082     0.00980
C1615       C  0.26563841  0.74792395  0.55708524     0.07010
C1616       C  0.27588253  0.75296471  0.54942075    -0.06090
H1617       H  0.26671342  0.73337884  0.57356079     0.07680
H1618       H  0.27513103  0.76005770  0.54133951     0.08880
Cu1619     Cu  0.29899059  0.72914423  0.57396554     0.44170
Cu1620     Cu  0.30655294  0.75110507  0.54803777     0.41990
Cu1621     Cu  0.33361935  0.73553990  0.56814810     0.43880
N1622       N  0.31393264  0.71987751  0.58425635    -0.34740
N1623       N  0.32672802  0.72197060  0.58247268    -0.29000
C1624       C  0.33348937  0.71413415  0.59107720    -0.05100
C1625       C  0.32440583  0.70698466  0.59867169     0.07120
C1626       C  0.31215980  0.71083622  0.59388585     0.00910
H1627       H  0.34417687  0.71374229  0.59183496     0.08570
H1628       H  0.30256598  0.70718709  0.59697450     0.07650
N1629       N  0.33633527  0.74918734  0.55250819    -0.36190
N1630       N  0.32657008  0.75424771  0.54525152    -0.28370
C1631       C  0.33161106  0.76242494  0.53598887    -0.03610
C1632       C  0.34519514  0.76257821  0.53734043     0.05000
C1633       C  0.34788797  0.75423196  0.54802078     0.03090
H1634       H  0.32575580  0.76811408  0.52896268     0.08200
H1635       H  0.35752033  0.75200639  0.55221047     0.07030
N1636       N  0.43707328  0.81405635  0.49123558    -0.27360
N1637       N  0.43991065  0.82151700  0.48080698    -0.35210
C1638       C  0.45312133  0.82217411  0.47941233     0.00980
C1639       C  0.45887219  0.81461887  0.48938969     0.07010
C1640       C  0.44840553  0.80974035  0.49680961    -0.06090
H1641       H  0.45816326  0.82804517  0.47194288     0.07680
H1642       H  0.44898226  0.80364269  0.50567566     0.08880
Cu1643     Cu  0.42560229  0.83099501  0.46961023     0.44170
Cu1644     Cu  0.41787157  0.81045506  0.49718480     0.41990
Cu1645     Cu  0.39091925  0.82611727  0.47826081     0.43880
N1646       N  0.41014848  0.84104844  0.46065541    -0.34740
N1647       N  0.39750209  0.83971309  0.46386277    -0.29000
C1648       C  0.39032163  0.84832548  0.45644513    -0.05100
C1649       C  0.39892021  0.85519267  0.44816853     0.07120
C1650       C  0.41135923  0.85034450  0.45112495     0.00910
H1651       H  0.37967318  0.84945953  0.45698495     0.08570
H1652       H  0.42065687  0.85347255  0.44678615     0.07650
N1653       N  0.38814871  0.81206355  0.49346068    -0.36190
N1654       N  0.39802756  0.80685901  0.50042507    -0.28370
C1655       C  0.39316546  0.79838454  0.50952019    -0.03610
C1656       C  0.37955890  0.79819269  0.50833465     0.05000
C1657       C  0.37667651  0.80683386  0.49793937     0.03090
H1658       H  0.39914198  0.79256391  0.51633297     0.08200
H1659       H  0.36697709  0.80915642  0.49396311     0.07030
C1660       C  0.38096514  0.91731325  0.40003641     0.03060
C1661       C  0.39089923  0.91777896  0.39024614    -0.13090
C1662       C  0.40153826  0.90879575  0.39053413     0.00560
C1663       C  0.40225312  0.89914599  0.40056246    -0.11610
C1664       C  0.39224571  0.89815510  0.41023654     0.03050
C1665       C  0.38154519  0.90716761  0.40975774    -0.11030
H1666       H  0.39035997  0.92505476  0.38229631     0.08650
H1667       H  0.41059940  0.89233368  0.40076206     0.06180
H1668       H  0.37355013  0.90619421  0.41682160     0.06030
N1669       N  0.04816064  0.20356682  0.24918227    -0.27360
N1670       N  0.05594906  0.20610283  0.25941334    -0.35210
C1671       C  0.05769834  0.21931057  0.26039298     0.00980
C1672       C  0.05071633  0.22533501  0.25019839     0.07010
C1673       C  0.04464529  0.21510644  0.24336643    -0.06090
H1674       H  0.06389123  0.22412845  0.26772431     0.07680
H1675       H  0.03852050  0.21595208  0.23456966     0.08880
Cu1676     Cu  0.06461877  0.19135561  0.27070047     0.44170
Cu1677     Cu  0.04352751  0.18443792  0.24344048     0.41990
Cu1678     Cu  0.05864816  0.15676633  0.26197788     0.43880
N1679       N  0.07421197  0.17551754  0.27950082    -0.34740
N1680       N  0.07245030  0.16286102  0.27633252    -0.29000
C1681       C  0.08085377  0.15538153  0.28368870    -0.05100
C1682       C  0.08807653  0.16382899  0.29180892     0.07120
C1683       C  0.08361589  0.17645761  0.28888477     0.00910
H1684       H  0.08165060  0.14465242  0.28316710     0.08570
H1685       H  0.08706783  0.18570232  0.29315265     0.07650
N1686       N  0.04434225  0.15453291  0.24698948    -0.36190
N1687       N  0.03927351  0.16462645  0.24020790    -0.28370
C1688       C  0.03051421  0.16003123  0.23128872    -0.03610
C1689       C  0.02972179  0.14632182  0.23253693     0.05000
C1690       C  0.03875835  0.14319778  0.24255339     0.03090
H1691       H  0.02527209  0.16633934  0.22432671     0.08200
H1692       H  0.04100765  0.13340561  0.24645865     0.07030
N1693       N  0.97930616  0.05246521  0.18386205    -0.27360
N1694       N  0.97212720  0.05007972  0.17318001    -0.35210
C1695       C  0.97161095  0.03689952  0.17108993     0.00980
C1696       C  0.97873338  0.03064756  0.18107697     0.07010
C1697       C  0.98362490  0.04084205  0.18891062    -0.06090
H1698       H  0.96688272  0.03235480  0.16259866     0.07680
H1699       H  0.98999027  0.03988777  0.19752335     0.08880
Cu1700     Cu  0.96372730  0.06506492  0.16207129     0.44170
Cu1701     Cu  0.98320998  0.07159922  0.19011878     0.41990
Cu1702     Cu  0.97001199  0.09977178  0.17050231     0.43880
N1703       N  0.95452637  0.08092389  0.15298477    -0.34740
N1704       N  0.95643833  0.09362850  0.15586994    -0.29000
C1705       C  0.94826791  0.10102931  0.14815261    -0.05100
C1706       C  0.94100938  0.09244851  0.14017350     0.07120
C1707       C  0.94525393  0.07986413  0.14350140     0.00910
H1708       H  0.94759662  0.11177759  0.14838594     0.08570
H1709       H  0.94174779  0.07055317  0.13942492     0.07650
N1710       N  0.98368200  0.10155845  0.18620918    -0.36190
N1711       N  0.98788361  0.09131734  0.19335115    -0.28370
C1712       C  0.99627932  0.09557597  0.20275765    -0.03610
C1713       C  0.99783509  0.10921989  0.20149488     0.05000
C1714       C  0.98953105  0.11265674  0.19092341     0.03090
H1715       H  0.00057575  0.08901596  0.21006540     0.08200
H1716       H  0.98793976  0.12251907  0.18687182     0.07030
N1717       N  0.49225631  0.55408436  0.80608836    -0.27360
N1718       N  0.50187346  0.55111333  0.81447825    -0.35210
C1719       C  0.50289974  0.53782408  0.81552125     0.00980
C1720       C  0.49352770  0.53216816  0.80724408     0.07010
C1721       C  0.48683750  0.54277388  0.80153427    -0.06090
H1722       H  0.50970746  0.53267991  0.82208446     0.07680
H1723       H  0.47855805  0.54231149  0.79471118     0.08880
Cu1724     Cu  0.51249547  0.56546711  0.82439626     0.44170
Cu1725     Cu  0.48701569  0.57344450  0.80184264     0.41990
Cu1726     Cu  0.50338678  0.60048607  0.81996848     0.43880
N1727       N  0.52154947  0.58099304  0.83413480    -0.34740
N1728       N  0.51823493  0.59370959  0.83300580    -0.29000
C1729       C  0.52601465  0.60084799  0.84126259    -0.05100
C1730       C  0.53463203  0.59214452  0.84763558     0.07120
C1731       C  0.53148317  0.57969915  0.84291909     0.00910
H1732       H  0.52547450  0.61153185  0.84250360     0.08570
H1733       H  0.53595769  0.57032739  0.84580810     0.07650
N1734       N  0.48871486  0.60331601  0.80538569    -0.36190
N1735       N  0.48310501  0.59335821  0.79889226    -0.28370
C1736       C  0.47442943  0.59820445  0.78999578    -0.03610
C1737       C  0.47433581  0.61188250  0.79093649     0.05000
C1738       C  0.48359535  0.61485239  0.80072336     0.03090
H1739       H  0.46858278  0.59216859  0.78330902     0.08200
H1740       H  0.48651280  0.62465428  0.80405186     0.07030
N1741       N  0.42435950  0.70397865  0.74239181    -0.27360
N1742       N  0.41480123  0.70624193  0.73376775    -0.35210
C1743       C  0.41272522  0.71936605  0.73266750     0.00980
C1744       C  0.42128181  0.72577036  0.74127103     0.07010
C1745       C  0.42864859  0.71568832  0.74720117    -0.06090
H1746       H  0.40542997  0.72382065  0.72614306     0.07680
H1747       H  0.43624537  0.71675149  0.75471718     0.08880
Cu1748     Cu  0.40481331  0.69115288  0.72466754     0.44170
Cu1749     Cu  0.43002023  0.68469998  0.74663530     0.41990
Cu1750     Cu  0.41452391  0.65677078  0.72686901     0.43880
N1751       N  0.39576291  0.67627158  0.71433446    -0.34740
N1752       N  0.39941367  0.66366741  0.71406853    -0.29000
C1753       C  0.39175836  0.65737863  0.70499160    -0.05100
C1754       C  0.38292944  0.66659525  0.69934005     0.07120
C1755       C  0.38574619  0.67833535  0.70591259     0.00910
H1756       H  0.39264847  0.64692679  0.70257970     0.08570
H1757       H  0.38099013  0.68786682  0.70504051     0.07650
N1758       N  0.42897596  0.65465205  0.74194113    -0.36190
N1759       N  0.43408042  0.66466148  0.74882278    -0.28370
C1760       C  0.44270012  0.65989895  0.75781616    -0.03610
C1761       C  0.44331765  0.64626870  0.75658138     0.05000
C1762       C  0.43439945  0.64320928  0.74650481     0.03090
H1763       H  0.44818146  0.66598266  0.76476665     0.08200
H1764       H  0.43191846  0.63338598  0.74289419     0.07030
C1765       C  0.59219969  0.58771803  0.90136076     0.03060
C1766       C  0.59080741  0.59737356  0.91141372    -0.13090
C1767       C  0.58166000  0.60784570  0.91007115     0.00560
C1768       C  0.57326452  0.60811270  0.89893186    -0.11610
C1769       C  0.57337096  0.59773975  0.88963822     0.03050
C1770       C  0.58316887  0.58780405  0.89067085    -0.11030
H1771       H  0.59686315  0.59678639  0.92029380     0.08650
H1772       H  0.56645405  0.61636095  0.89765313     0.06180
H1773       H  0.58374488  0.58015075  0.88312205     0.06030
C1774       C  0.34227608  0.65771349  0.65866482     0.03060
C1775       C  0.34209614  0.66606471  0.64734866    -0.13090
C1776       C  0.33170161  0.66553355  0.63814175     0.00560
C1777       C  0.32182831  0.65587569  0.63959306    -0.11610
C1778       C  0.32211458  0.64697448  0.65034976     0.03050
C1779       C  0.33194743  0.64838889  0.66018851    -0.11030
H1780       H  0.34984331  0.67333488  0.64576899     0.08650
H1781       H  0.31391387  0.65530113  0.63232430     0.06180
H1782       H  0.33138470  0.64222897  0.66900643     0.06030
N1783       N  0.29744929  0.99709840  0.44508391    -0.27360
N1784       N  0.30638643  0.98787876  0.44779099    -0.35210
C1785       C  0.30835338  0.98740530  0.46099391     0.00980
C1786       C  0.30036670  0.99695972  0.46678864     0.07010
C1787       C  0.29347911  0.00284383  0.45644710    -0.06090
H1788       H  0.31530466  0.98085039  0.46595903     0.07680
H1789       H  0.28626863  0.01080493  0.45710929     0.08880
Cu1790     Cu  0.31583070  0.97731443  0.43303107     0.44170
Cu1791     Cu  0.29185743  0.00157448  0.42595303     0.41990
Cu1792     Cu  0.31047378  0.98725466  0.39820324     0.43880
N1793       N  0.32529607  0.96878071  0.41701036    -0.34740
N1794       N  0.32391011  0.97241075  0.40441465    -0.29000
C1795       C  0.33209463  0.96482609  0.39694354    -0.05100
C1796       C  0.33867414  0.95599082  0.40529801     0.07120
C1797       C  0.33415558  0.95883950  0.41788387     0.00910
H1798       H  0.33307758  0.96557755  0.38625860     0.08570
H1799       H  0.33719856  0.95411132  0.42707324     0.07650
N1800       N  0.29519701  0.00142868  0.39609710    -0.36190
N1801       N  0.28841043  0.00608308  0.40631907    -0.28370
C1802       C  0.27907642  0.01457982  0.40202547    -0.03610
C1803       C  0.28002237  0.01572684  0.38835587     0.05000
C1804       C  0.29030061  0.00707442  0.38492981     0.03090
H1805       H  0.27196673  0.01917110  0.40855971     0.08200
H1806       H  0.29397732  0.00507824  0.37502988     0.07030
N1807       N  0.23155508  0.06559540  0.29456575    -0.27360
N1808       N  0.22050259  0.07207926  0.29182504    -0.35210
C1809       C  0.21886078  0.07256985  0.27858459     0.00980
C1810       C  0.22936670  0.06592601  0.27274562     0.07010
C1811       C  0.23730498  0.06174969  0.28316537    -0.06090
H1812       H  0.21090183  0.07780055  0.27357843     0.07680
H1813       H  0.24665094  0.05649137  0.28250851     0.08880
Cu1814     Cu  0.20913320  0.08081907  0.30639186     0.44170
Cu1815     Cu  0.23796232  0.06253530  0.31374023     0.41990
Cu1816     Cu  0.21820288  0.07588253  0.34124846     0.43880
N1817       N  0.20096190  0.09131182  0.32194016    -0.34740
N1818       N  0.20411420  0.08988144  0.33463870    -0.29000
C1819       C  0.19739624  0.09912867  0.34170104    -0.05100
C1820       C  0.18994032  0.10680654  0.33292459     0.07120
C1821       C  0.19232480  0.10138397  0.32056566     0.00910
H1822       H  0.19816789  0.10042721  0.35234804     0.08570
H1823       H  0.18826885  0.10470223  0.31115860     0.07650
N1824       N  0.23364186  0.06193928  0.34347339    -0.36190
N1825       N  0.24089905  0.05768027  0.33339929    -0.28370
C1826       C  0.25006453  0.04904796  0.33781257    -0.03610
C1827       C  0.24849584  0.04742955  0.35137344     0.05000
C1828       C  0.23805972  0.05592763  0.35464382     0.03090
H1829       H  0.25747755  0.04465297  0.33147309     0.08200
H1830       H  0.23393903  0.05755411  0.36443554     0.07030
N1831       N  0.17565975  0.49888849  0.54348501    -0.27360
N1832       N  0.16737445  0.48906161  0.54104337    -0.35210
C1833       C  0.16576937  0.48780743  0.52788295     0.00980
C1834       C  0.17356402  0.49723291  0.52168063     0.07010
C1835       C  0.17964157  0.50420531  0.53186773    -0.06090
H1836       H  0.15915516  0.48077133  0.52319029     0.07680
H1837       H  0.18611031  0.51273173  0.53092134     0.08880
Cu1838     Cu  0.15788217  0.47870089  0.55577244     0.44170
Cu1839     Cu  0.18020422  0.50433434  0.56272638     0.41990
Cu1840     Cu  0.16249810  0.48707095  0.59033844     0.43880
N1841       N  0.14695139  0.47054408  0.57087402    -0.34740
N1842       N  0.14821121  0.47344510  0.58362081    -0.29000
C1843       C  0.13908257  0.46637943  0.59046352    -0.05100
C1844       C  0.13167976  0.45896631  0.58145463     0.07120
C1845       C  0.13715537  0.46173416  0.56921475     0.00910
H1846       H  0.13785758  0.46665819  0.60114453     0.08570
H1847       H  0.13450472  0.45742524  0.55974245     0.07650
N1848       N  0.17779578  0.50106210  0.59272333    -0.36190
N1849       N  0.18390685  0.50708571  0.58273294    -0.28370
C1850       C  0.19315273  0.51535349  0.58755973    -0.03610
C1851       C  0.19312113  0.51446608  0.60125150     0.05000
C1852       C  0.18310484  0.50546799  0.60421715     0.03090
H1853       H  0.19934262  0.52171645  0.58149652     0.08200
H1854       H  0.17990980  0.50237567  0.61401299     0.07030
N1855       N  0.24098669  0.56337469  0.69415271    -0.27360
N1856       N  0.25120927  0.57100078  0.69704530    -0.35210
C1857       C  0.25241338  0.57187028  0.71030603     0.00980
C1858       C  0.24246845  0.56433900  0.71600791     0.07010
C1859       C  0.23530110  0.55920724  0.70549014    -0.06090
H1860       H  0.25962867  0.57796582  0.71540409     0.07680
H1861       H  0.22647401  0.55313598  0.70603318     0.08880
Cu1862     Cu  0.26190987  0.58081301  0.68266714     0.44170
Cu1863     Cu  0.23529912  0.55972239  0.67485438     0.41990
Cu1864     Cu  0.25215833  0.57746513  0.64780219     0.43880
N1865       N  0.26997776  0.59173559  0.66736612    -0.34740
N1866       N  0.26648245  0.59093984  0.65470266    -0.29000
C1867       C  0.27359237  0.59995547  0.64774723    -0.05100
C1868       C  0.28182669  0.60661365  0.65654834     0.07120
C1869       C  0.27931134  0.60110784  0.66881678     0.00910
H1870       H  0.27288755  0.60149425  0.63712092     0.08570
H1871       H  0.28388422  0.60376811  0.67817194     0.07650
N1872       N  0.23736363  0.56305074  0.64500216    -0.36190
N1873       N  0.23142075  0.55685383  0.65496897    -0.28370
C1874       C  0.22249955  0.54824196  0.65015215    -0.03610
C1875       C  0.22255538  0.54909048  0.63646158     0.05000
C1876       C  0.23226993  0.55842511  0.63349099     0.03090
H1877       H  0.21649682  0.54170214  0.65621820     0.08200
H1878       H  0.23536906  0.56162172  0.62369747     0.07030
N1879       N  0.03456060  0.31542688  0.49795375    -0.27360
N1880       N  0.03202989  0.32585308  0.50546205    -0.35210
C1881       C  0.01887705  0.32719230  0.50688219     0.00980
C1882       C  0.01284591  0.31699784  0.49994615     0.07010
C1883       C  0.02307710  0.30981431  0.49424589    -0.06090
H1884       H  0.01412573  0.33527540  0.51214042     0.07680
H1885       H  0.02223105  0.30124347  0.48780520     0.08880
Cu1886     Cu  0.04691785  0.33729307  0.51326846     0.44170
Cu1887     Cu  0.05370682  0.30997364  0.49360511     0.41990
Cu1888     Cu  0.08104021  0.32555508  0.51290963     0.43880
N1889       N  0.06198152  0.34579801  0.52394914    -0.34740
N1890       N  0.07424255  0.34131280  0.52493108    -0.29000
C1891       C  0.08054982  0.34863258  0.53425900    -0.05100
C1892       C  0.07174549  0.35812649  0.53936207     0.07120
C1893       C  0.06020737  0.35603538  0.53221589     0.00910
H1894       H  0.09072253  0.34701984  0.53725720     0.08570
H1895       H  0.05099614  0.36138248  0.53266890     0.07650
N1896       N  0.08344311  0.31087466  0.49813371    -0.36190
N1897       N  0.07351856  0.30575579  0.49123344    -0.28370
C1898       C  0.07824398  0.29710010  0.48227668    -0.03610
C1899       C  0.09185702  0.29640973  0.48355896     0.05000
C1900       C  0.09482309  0.30540641  0.49366000     0.03090
H1901       H  0.07209444  0.29196631  0.47514562     0.08200
H1902       H  0.10454944  0.30781459  0.49747405     0.07030
N1903       N  0.18519918  0.24752905  0.43341010    -0.27360
N1904       N  0.18772547  0.23891995  0.42388068    -0.35210
C1905       C  0.20086623  0.23807732  0.42207076     0.00980
C1906       C  0.20693350  0.24656933  0.43101312     0.07010
C1907       C  0.19666751  0.25249296  0.43798284    -0.06090
H1908       H  0.20556795  0.23199954  0.41455969     0.07680
H1909       H  0.19745255  0.25986010  0.44577309     0.08880
Cu1910     Cu  0.17287255  0.22927981  0.41388738     0.44170
Cu1911     Cu  0.16609698  0.25195971  0.43893482     0.41990
Cu1912     Cu  0.13811275  0.23775633  0.41992689     0.43880
N1913       N  0.15718907  0.22041969  0.40444484    -0.34740
N1914       N  0.14451265  0.22333866  0.40612111    -0.29000
C1915       C  0.13735749  0.21563841  0.39776490    -0.05100
C1916       C  0.14603925  0.20744987  0.39073015     0.07120
C1917       C  0.15845827  0.21091094  0.39522982     0.00910
H1918       H  0.12669674  0.21612390  0.39671828     0.08570
H1919       H  0.16784776  0.20688076  0.39192907     0.07650
N1920       N  0.13624334  0.25178970  0.43539233    -0.36190
N1921       N  0.14646159  0.25632120  0.44224308    -0.28370
C1922       C  0.14222299  0.26466758  0.45170766    -0.03610
C1923       C  0.12859815  0.26588206  0.45080857     0.05000
C1924       C  0.12514750  0.25740631  0.44038069     0.03090
H1925       H  0.14879239  0.26907358  0.45888099     0.08200
H1926       H  0.11527141  0.25546877  0.43668399     0.07030
C1927       C  0.08160978  0.39786440  0.58070563     0.03060
C1928       C  0.07322958  0.39803727  0.59191110    -0.13090
C1929       C  0.07340867  0.40867314  0.60089193     0.00560
C1930       C  0.08308466  0.41856037  0.59958302    -0.11610
C1931       C  0.09199719  0.41824654  0.58891226     0.03050
C1932       C  0.09094321  0.40819572  0.57925135    -0.11030
H1933       H  0.06608200  0.39015277  0.59344902     0.08650
H1934       H  0.08347205  0.42668581  0.60664854     0.06180
H1935       H  0.09723875  0.40865105  0.57055607     0.06030
C1936       C  0.15032179  0.14780556  0.33948536     0.03060
C1937       C  0.14006268  0.14774224  0.33005288    -0.13090
C1938       C  0.13046990  0.15791247  0.32991495     0.00560
C1939       C  0.13099317  0.16791892  0.33966126    -0.11610
C1940       C  0.14112875  0.16798334  0.34919800     0.03050
C1941       C  0.15082924  0.15794521  0.34903342    -0.11030
H1942       H  0.13952905  0.13969433  0.32293012     0.08650
H1943       H  0.12362842  0.17579395  0.33970355     0.06180
H1944       H  0.15880415  0.15808117  0.35625719     0.06030
N1945       N  0.47901912  0.05368408  0.68571892    -0.27360
N1946       N  0.46981332  0.05093961  0.67683930    -0.35210
C1947       C  0.46914984  0.03770437  0.67523644     0.00980
C1948       C  0.47849486  0.03184208  0.68345762     0.07010
C1949       C  0.48451082  0.04228204  0.69006883    -0.06090
H1950       H  0.46258089  0.03273213  0.66835094     0.07680
H1951       H  0.49218490  0.04174616  0.69754490     0.08880
Cu1952     Cu  0.45924010  0.06552631  0.66706507     0.44170
Cu1953     Cu  0.48385292  0.07290652  0.69064367     0.41990
Cu1954     Cu  0.46816290  0.10036667  0.67220045     0.43880
N1955       N  0.45034522  0.08126745  0.65737788    -0.34740
N1956       N  0.45357904  0.09395126  0.65880099    -0.29000
C1957       C  0.44597283  0.10128573  0.65049058    -0.05100
C1958       C  0.43762820  0.09271867  0.64366738     0.07120
C1959       C  0.44064493  0.08017967  0.64832481     0.00910
H1960       H  0.44646805  0.11199975  0.64948668     0.08570
H1961       H  0.43624715  0.07087929  0.64520628     0.07650
N1962       N  0.48285240  0.10277133  0.68677578    -0.36190
N1963       N  0.48830348  0.09268358  0.69327937    -0.28370
C1964       C  0.49722162  0.09729537  0.70200444    -0.03610
C1965       C  0.49763327  0.11097418  0.70094594     0.05000
C1966       C  0.48824642  0.11416261  0.69133206     0.03090
H1967       H  0.50261225  0.09107981  0.70894072     0.08200
H1968       H  0.48552205  0.12403146  0.68795193     0.07030
N1969       N  0.54539407  0.20450392  0.74968608    -0.27360
N1970       N  0.55535176  0.20724460  0.75767245    -0.35210
C1971       C  0.55723494  0.22045020  0.75786083     0.00980
C1972       C  0.54795724  0.22640954  0.74955086     0.07010
C1973       C  0.54051562  0.21589263  0.74462449    -0.06090
H1974       H  0.56497891  0.22531982  0.76346720     0.07680
H1975       H  0.53210459  0.21626055  0.73802714     0.08880
Cu1976     Cu  0.56561064  0.19261546  0.76769495     0.44170
Cu1977     Cu  0.53982498  0.18520650  0.74590473     0.41990
Cu1978     Cu  0.55781424  0.15753116  0.76225744     0.43880
N1979       N  0.57497340  0.17705856  0.77720986    -0.34740
N1980       N  0.57249315  0.16426187  0.77544509    -0.29000
C1981       C  0.58075298  0.15718233  0.78335578    -0.05100
C1982       C  0.58884085  0.16601236  0.79026022     0.07120
C1983       C  0.58468430  0.17848292  0.78617102     0.00910
H1984       H  0.58093621  0.14642770  0.78396358     0.08570
H1985       H  0.58824059  0.18802214  0.78960677     0.07650
N1986       N  0.54247844  0.15520322  0.74830451    -0.36190
N1987       N  0.53626476  0.16533187  0.74259526    -0.28370
C1988       C  0.52725734  0.16074382  0.73395758    -0.03610
C1989       C  0.52748866  0.14701856  0.73429756     0.05000
C1990       C  0.53741045  0.14381322  0.74336793     0.03090
H1991       H  0.52142122  0.16707240  0.72751610     0.08200
H1992       H  0.54072625  0.13392976  0.74611395     0.07030
N1993       N  0.23092278  0.94089552  0.69435793    -0.27360
N1994       N  0.22160028  0.93215283  0.69715406    -0.35210
C1995       C  0.22091434  0.93055921  0.71038429     0.00980
C1996       C  0.23035763  0.93864807  0.71620499     0.07010
C1997       C  0.23643997  0.94518240  0.70572251    -0.06090
H1998       H  0.21424342  0.92377756  0.71538376     0.07680
H1999       H  0.24415360  0.95260031  0.70619204     0.08880
Cu2000     Cu  0.21079088  0.92263923  0.68264658     0.44170
Cu2001     Cu  0.23582896  0.94585300  0.67512505     0.41990
Cu2002     Cu  0.21858226  0.92913373  0.64774037     0.43880
N2003       N  0.20154219  0.91341700  0.66690451    -0.34740
N2004       N  0.20430995  0.91541742  0.65419114    -0.29000
C2005       C  0.19657786  0.90731597  0.64683270    -0.05100
C2006       C  0.18863991  0.90002824  0.65541367     0.07120
C2007       C  0.19203517  0.90416404  0.66799161     0.00910
H2008       H  0.19674864  0.90673764  0.63609534     0.08570
H2009       H  0.18801594  0.90057508  0.67730170     0.07650
N2010       N  0.23356584  0.94336261  0.64523271    -0.36190
N2011       N  0.23976677  0.94909045  0.65530215    -0.28370
C2012       C  0.24890343  0.95756730  0.65062309    -0.03610
C2013       C  0.24859663  0.95720081  0.63692542     0.05000
C2014       C  0.23861813  0.94823609  0.63379805     0.03090
H2015       H  0.25515928  0.96375227  0.65677999     0.08200
H2016       H  0.23529688  0.94547308  0.62395576     0.07030
N2017       N  0.29503888  0.00798451  0.54479775    -0.27360
N2018       N  0.30499884  0.01598556  0.54206755    -0.35210
C2019       C  0.30708491  0.01609894  0.52892230     0.00980
C2020       C  0.29799591  0.00768711  0.52299962     0.07010
C2021       C  0.29040323  0.00276832  0.53340941    -0.06090
H2022       H  0.31485837  0.02168971  0.52406207     0.07680
H2023       H  0.28207310  0.99607145  0.53289643     0.08880
Cu2024     Cu  0.31536466  0.02592547  0.55648047     0.44170
Cu2025     Cu  0.28928453  0.00444209  0.56412721     0.41990
Cu2026     Cu  0.30914809  0.01946707  0.59137585     0.43880
N2027       N  0.32551082  0.03498705  0.57161953    -0.34740
N2028       N  0.32366632  0.03276990  0.58443668    -0.29000
C2029       C  0.33235390  0.04033100  0.59129607    -0.05100
C2030       C  0.33993354  0.04764564  0.58227181     0.07120
C2031       C  0.33521652  0.04389980  0.56994361     0.00910
H2032       H  0.33320419  0.04029362  0.60201143     0.08570
H2033       H  0.33851496  0.04745018  0.56034065     0.07650
N2034       N  0.29331503  0.00612543  0.59403927    -0.36190
N2035       N  0.28626488  0.00112377  0.58412982    -0.28370
C2036       C  0.27694306  0.99297987  0.58901691    -0.03610
C2037       C  0.27793833  0.99283862  0.60268740     0.05000
C2038       C  0.28855815  0.00113642  0.60556107     0.03090
H2039       H  0.27012054  0.98729847  0.58298268     0.08200
H2040       H  0.29254709  0.00333499  0.61529696     0.07030
C2041       C  0.39781422  0.09817610  0.60271514     0.03060
C2042       C  0.38967544  0.08720389  0.59999428    -0.13090
C2043       C  0.38110941  0.08733110  0.58901420     0.00560
C2044       C  0.38158686  0.09803669  0.57998745    -0.11610
C2045       C  0.39017866  0.10883876  0.58218571     0.03050
C2046       C  0.39751096  0.10916986  0.59407528    -0.11030
H2047       H  0.39012238  0.07840594  0.60621036     0.08650
H2048       H  0.37540062  0.09781734  0.57118213     0.06180
H2049       H  0.40321842  0.11789831  0.59659534     0.06030
N2050       N  0.73212276  0.06243759  0.79523227    -0.27360
N2051       N  0.72444533  0.07274901  0.79266901    -0.35210
C2052       C  0.72377193  0.07466392  0.77950716     0.00980
C2053       C  0.73157208  0.06515135  0.77343641     0.07010
C2054       C  0.73672747  0.05748057  0.78369994    -0.06090
H2055       H  0.71813411  0.08250074  0.77471715     0.07680
H2056       H  0.74309283  0.04884826  0.78290298     0.08880
Cu2057     Cu  0.71530035  0.08335315  0.80737856     0.44170
Cu2058     Cu  0.73519900  0.05643666  0.81460603     0.41990
Cu2059     Cu  0.71650073  0.07395619  0.84192969     0.43880
N2060       N  0.70428637  0.09238076  0.82184366    -0.34740
N2061       N  0.70385330  0.08896470  0.83448787    -0.29000
C2062       C  0.69458613  0.09664335  0.84046580    -0.05100
C2063       C  0.68894491  0.10530681  0.83103849     0.07120
C2064       C  0.69568410  0.10220435  0.81942942     0.00910
H2065       H  0.69206300  0.09585276  0.85088105     0.08570
H2066       H  0.69481798  0.10649705  0.80970159     0.07650
N2067       N  0.73109875  0.05909264  0.84458331    -0.36190
N2068       N  0.73744944  0.05308645  0.83473757    -0.28370
C2069       C  0.74633108  0.04450384  0.83976743    -0.03610
C2070       C  0.74567545  0.04490850  0.85344984     0.05000
C2071       C  0.73593051  0.05434369  0.85619801     0.03090
H2072       H  0.75291791  0.03844075  0.83381841     0.08200
H2073       H  0.73290171  0.05792697  0.86584968     0.07030
N2074       N  0.79793898  0.99664969  0.94450801    -0.27360
N2075       N  0.80597365  0.98665508  0.94734812    -0.35210
C2076       C  0.80777786  0.98606915  0.96056316     0.00980
C2077       C  0.80064367  0.99632664  0.96626421     0.07010
C2078       C  0.79437442  0.00274816  0.95582890    -0.06090
H2079       H  0.81409076  0.97894384  0.96560428     0.07680
H2080       H  0.78786947  0.01130754  0.95639887     0.08880
Cu2081     Cu  0.81474936  0.97513746  0.93290816     0.44170
Cu2082     Cu  0.79288392  0.00159366  0.92529203     0.41990
Cu2083     Cu  0.80932229  0.98394622  0.89806413     0.43880
N2084       N  0.82437599  0.96619540  0.91723303    -0.34740
N2085       N  0.82284735  0.96942643  0.90455400    -0.29000
C2086       C  0.83124104  0.96193948  0.89724998    -0.05100
C2087       C  0.83819634  0.95365232  0.90581927     0.07120
C2088       C  0.83361174  0.95662572  0.91834878     0.00910
H2089       H  0.83220762  0.96248347  0.88655144     0.08570
H2090       H  0.83688454  0.95228375  0.92764708     0.07650
N2091       N  0.79484626  0.99875158  0.89543871    -0.36190
N2092       N  0.78903983  0.00495903  0.90545847    -0.28370
C2093       C  0.78009919  0.01365684  0.90071565    -0.03610
C2094       C  0.78023070  0.01309201  0.88701096     0.05000
C2095       C  0.78966136  0.00344192  0.88397346     0.03090
H2096       H  0.77392904  0.01997412  0.90684597     0.08200
H2097       H  0.79228799  0.99974776  0.87424325     0.07030
N2098       N  0.68555452  0.24778094  0.93404185    -0.27360
N2099       N  0.68818858  0.23870321  0.92496265    -0.35210
C2100       C  0.70134424  0.23782066  0.92328364     0.00980
C2101       C  0.70734417  0.24665416  0.93191339     0.07010
C2102       C  0.69701320  0.25293814  0.93847214    -0.06090
H2103       H  0.70604275  0.23165918  0.91585571     0.07680
H2104       H  0.69776660  0.26078024  0.94579030     0.08880
Cu2105     Cu  0.67369607  0.22851804  0.91489785     0.44170
Cu2106     Cu  0.66635519  0.25277678  0.93910803     0.41990
Cu2107     Cu  0.63926308  0.23738436  0.91977707     0.43880
N2108       N  0.65832356  0.21992718  0.90464799    -0.34740
N2109       N  0.64572385  0.22323464  0.90589748    -0.29000
C2110       C  0.63859614  0.21599027  0.89717110    -0.05100
C2111       C  0.64717450  0.20761041  0.89016628     0.07120
C2112       C  0.65956929  0.21051493  0.89532280     0.00910
H2113       H  0.62804135  0.21710412  0.89597695     0.08570
H2114       H  0.66894353  0.20607947  0.89255911     0.07650
N2115       N  0.63657255  0.25103589  0.93530931    -0.36190
N2116       N  0.64641841  0.25633256  0.94218324    -0.28370
C2117       C  0.64145520  0.26462124  0.95137082    -0.03610
C2118       C  0.62779466  0.26460172  0.95042027     0.05000
C2119       C  0.62503820  0.25592020  0.94002564     0.03090
H2120       H  0.64741368  0.27030700  0.95826217     0.08200
H2121       H  0.61546837  0.25362349  0.93582034     0.07030
N2122       N  0.53579155  0.31559628  0.99800051    -0.27360
N2123       N  0.53314856  0.32282340  0.00859509    -0.35210
C2124       C  0.51999302  0.32386255  0.01004578     0.00980
C2125       C  0.51392272  0.31696805  0.99980294     0.07010
C2126       C  0.52432640  0.31189878  0.99229010    -0.06090
H2127       H  0.51525474  0.32936199  0.01796521     0.07680
H2128       H  0.52373007  0.30627172  0.98316512     0.08880
Cu2129     Cu  0.54752772  0.33166647  0.01998073     0.44170
Cu2130     Cu  0.55502162  0.31126860  0.99240749     0.41990
Cu2131     Cu  0.58200197  0.32559357  0.01280470     0.43880
N2132       N  0.56276699  0.34126233  0.02948739    -0.34740
N2133       N  0.57549312  0.33920389  0.02713352    -0.29000
C2134       C  0.58260129  0.34745036  0.03494678    -0.05100
C2135       C  0.57382322  0.35494082  0.04251429     0.07120
C2136       C  0.56138892  0.35081275  0.03867228     0.00910
H2137       H  0.59329683  0.34816130  0.03491593     0.08570
H2138       H  0.55197769  0.35457678  0.04221112     0.07650
N2139       N  0.58469080  0.31185370  0.99739494    -0.36190
N2140       N  0.57493382  0.30693751  0.99011532    -0.28370
C2141       C  0.57994712  0.29834489  0.98122836    -0.03610
C2142       C  0.59353866  0.29781286  0.98280230     0.05000
C2143       C  0.59620213  0.30644882  0.99324037     0.03090
H2144       H  0.57408275  0.29286486  0.97409318     0.08200
H2145       H  0.60568324  0.30840187  0.99781543     0.07030
C2146       C  0.58994584  0.41808513  0.08829998     0.03060
C2147       C  0.58962053  0.40753430  0.07919004    -0.13090
C2148       C  0.58008954  0.39750610  0.08039672     0.00560
C2149       C  0.57112687  0.39775247  0.09103645    -0.11610
C2150       C  0.57137889  0.40819405  0.10032470     0.03050
C2151       C  0.58062756  0.41851374  0.09864862    -0.11030
H2152       H  0.59666663  0.40722030  0.07106423     0.08650
H2153       H  0.56386991  0.38986767  0.09198889     0.06180
H2154       H  0.58053585  0.42700514  0.10524193     0.06030
C2155       C  0.62787512  0.15695481  0.83165635     0.03060
C2156       C  0.63676904  0.14623255  0.83124479    -0.13090
C2157       C  0.64777159  0.14563940  0.83988789     0.00560
C2158       C  0.64944588  0.15588980  0.84928503    -0.11610
C2159       C  0.64031286  0.16647661  0.85008786     0.03050
C2160       C  0.62962227  0.16695826  0.84117721    -0.11030
H2161       H  0.63531126  0.13857778  0.82381760     0.08650
H2162       H  0.65799506  0.15585690  0.85578693     0.06180
H2163       H  0.62284433  0.17534684  0.84139220     0.06030
N2164       N  0.78582938  0.74575181  0.05529941    -0.27360
N2165       N  0.78343721  0.73818158  0.06576223    -0.35210
C2166       C  0.77042443  0.73832003  0.06839212     0.00980
C2167       C  0.76434437  0.74643106  0.05913598     0.07010
C2168       C  0.77432855  0.75092609  0.05087701    -0.06090
H2169       H  0.76578058  0.73313468  0.07659339     0.07680
H2170       H  0.77338064  0.75778454  0.04261790     0.08880
Cu2171     Cu  0.79802756  0.72848822  0.07617147     0.44170
Cu2172     Cu  0.80489319  0.74915680  0.04875485     0.41990
Cu2173     Cu  0.83237397  0.73322826  0.06756592     0.43880
N2174       N  0.81332082  0.71860614  0.08532259    -0.34740
N2175       N  0.82599426  0.71999383  0.08232466    -0.29000
C2176       C  0.83312197  0.71176308  0.09021252    -0.05100
C2177       C  0.82438782  0.70492327  0.09841672     0.07120
C2178       C  0.81199353  0.70962609  0.09509271     0.00910
H2179       H  0.84380968  0.71090968  0.09008299     0.08570
H2180       H  0.80263563  0.70669129  0.09943976     0.07650
N2181       N  0.83474263  0.74694087  0.05203333    -0.36190
N2182       N  0.82480101  0.75231642  0.04527712    -0.28370
C2183       C  0.82963697  0.76068212  0.03606953    -0.03610
C2184       C  0.84327985  0.76054595  0.03689145     0.05000
C2185       C  0.84620321  0.75188290  0.04724788     0.03090
H2186       H  0.82361734  0.76668557  0.02945505     0.08200
H2187       H  0.85593336  0.74941751  0.05106171     0.07030
N2188       N  0.93557253  0.81261595  0.99151189    -0.27360
N2189       N  0.93806689  0.82092564  0.98165962    -0.35210
C2190       C  0.95118966  0.82257102  0.98053887     0.00980
C2191       C  0.95729806  0.81479444  0.99008855     0.07010
C2192       C  0.94710187  0.80868584  0.99698761    -0.06090
H2193       H  0.95591794  0.82917244  0.97348039     0.07680
H2194       H  0.94797391  0.80222461  0.00556949     0.08880
Cu2195     Cu  0.92348427  0.83021988  0.97086361     0.44170
Cu2196     Cu  0.91643875  0.80790223  0.99689817     0.41990
Cu2197     Cu  0.88903556  0.82401171  0.97814674     0.43880
N2198       N  0.90814874  0.83983241  0.96147570    -0.34740
N2199       N  0.89544209  0.83785277  0.96394311    -0.29000
C2200       C  0.88829893  0.84624030  0.95623628    -0.05100
C2201       C  0.89703327  0.85368152  0.94854925     0.07120
C2202       C  0.90947875  0.84939322  0.95226816     0.00910
H2203       H  0.87760856  0.84705795  0.95640468     0.08570
H2204       H  0.91888017  0.85306895  0.94863899     0.07650
N2205       N  0.88661362  0.80992260  0.99334999    -0.36190
N2206       N  0.89653857  0.80446046  0.00006180    -0.28370
C2207       C  0.89168803  0.79599192  0.00916473    -0.03610
C2208       C  0.87804989  0.79613732  0.00831623     0.05000
C2209       C  0.87514298  0.80491696  0.99805100     0.03090
H2210       H  0.89769399  0.78997777  0.01578217     0.08200
H2211       H  0.86541489  0.80747479  0.99429279     0.07030
N2212       N  0.67558787  0.49676450  0.04552045    -0.27360
N2213       N  0.66720045  0.48708078  0.04285133    -0.35210
C2214       C  0.66590529  0.48589844  0.02964510     0.00980
C2215       C  0.67400121  0.49522482  0.02367517     0.07010
C2216       C  0.67992385  0.50205846  0.03403256    -0.06090
H2217       H  0.65923041  0.47905295  0.02476145     0.07680
H2218       H  0.68645128  0.51055910  0.03328501     0.08880
Cu2219     Cu  0.65716056  0.47682611  0.05731724     0.44170
Cu2220     Cu  0.67974582  0.50233966  0.06479003     0.41990
Cu2221     Cu  0.66304987  0.48412048  0.09204207     0.43880
N2222       N  0.64684926  0.46816667  0.07261377    -0.34740
N2223       N  0.64876850  0.47060074  0.08538988    -0.29000
C2224       C  0.64008922  0.46324865  0.09248337    -0.05100
C2225       C  0.63246821  0.45598779  0.08362230     0.07120
C2226       C  0.63701362  0.45934321  0.07118408     0.00910
H2227       H  0.63937116  0.46320226  0.10321436     0.08570
H2228       H  0.63344130  0.45563919  0.06174796     0.07650
N2229       N  0.67741374  0.49889561  0.09467554    -0.36190
N2230       N  0.68304516  0.50548244  0.08478264    -0.28370
C2231       C  0.69158890  0.51439488  0.08973334    -0.03610
C2232       C  0.69147577  0.51350447  0.10345605     0.05000
C2233       C  0.68238280  0.50347482  0.10623339     0.03090
H2234       H  0.69741523  0.52110643  0.08368894     0.08200
H2235       H  0.67969239  0.49957723  0.11588488     0.07030
N2236       N  0.74030814  0.56284017  0.19635913    -0.27360
N2237       N  0.74974637  0.57149801  0.19904737    -0.35210
C2238       C  0.75009076  0.57366200  0.21220102     0.00980
C2239       C  0.74026676  0.56609985  0.21805700     0.07010
C2240       C  0.73433522  0.55922035  0.20774638    -0.06090
H2241       H  0.75674194  0.58052420  0.21709298     0.07680
H2242       H  0.72617505  0.55228337  0.20843456     0.08880
Cu2243     Cu  0.76086716  0.58064000  0.18452910     0.44170
Cu2244     Cu  0.73579944  0.55730615  0.17717312     0.41990
Cu2245     Cu  0.75152547  0.57592006  0.14993234     0.43880
N2246       N  0.76967503  0.59042526  0.16885992    -0.34740
N2247       N  0.76615610  0.58920818  0.15624411    -0.29000
C2248       C  0.77361917  0.59755986  0.14887502    -0.05100
C2249       C  0.78223832  0.60412779  0.15733076     0.07120
C2250       C  0.77944732  0.59939986  0.16987266     0.00910
H2251       H  0.77286834  0.59872138  0.13820492     0.08570
H2252       H  0.78404256  0.60241222  0.17910829     0.07650
N2253       N  0.73754556  0.56079501  0.14732264    -0.36190
N2254       N  0.73220264  0.55405522  0.15726807    -0.28370
C2255       C  0.72386451  0.54489823  0.15240950    -0.03610
C2256       C  0.72384261  0.54577611  0.13868721     0.05000
C2257       C  0.73262286  0.55605301  0.13581091     0.03090
H2258       H  0.71827543  0.53803044  0.15850618     0.08200
H2259       H  0.73512227  0.55999381  0.12612322     0.07030
C2260       C  0.82038263  0.64634338  0.15089744     0.03060
C2261       C  0.82052930  0.65562090  0.14042807    -0.13090
C2262       C  0.82961663  0.66614904  0.14043921     0.00560
C2263       C  0.83900247  0.66710729  0.15064027    -0.11610
C2264       C  0.83934740  0.65762103  0.16090023     0.03050
C2265       C  0.83003660  0.64724602  0.16095399    -0.11030
H2266       H  0.81361194  0.65470483  0.13225244     0.08650
H2267       H  0.84604050  0.67524742  0.15058493     0.06180
H2268       H  0.83027247  0.63991783  0.16888104     0.06030
N2269       N  0.04730596  0.80221411  0.73947372    -0.27360
N2270       N  0.05462698  0.79987999  0.72888256    -0.35210
C2271       C  0.05606015  0.78671228  0.72732582     0.00980
C2272       C  0.04925197  0.78036447  0.73744320     0.07010
C2273       C  0.04382110  0.79053635  0.74501007    -0.06090
H2274       H  0.06188036  0.78213498  0.71954122     0.07680
H2275       H  0.03821497  0.78959338  0.75412254     0.08880
Cu2276     Cu  0.06337104  0.81473517  0.71798585     0.44170
Cu2277     Cu  0.04319113  0.82136054  0.74559936     0.41990
Cu2278     Cu  0.05991889  0.84911861  0.72804978     0.43880
N2279       N  0.07415657  0.83002288  0.70989341    -0.34740
N2280       N  0.07344505  0.84262952  0.71361112    -0.29000
C2281       C  0.08251184  0.84962953  0.70663147    -0.05100
C2282       C  0.08904181  0.84089746  0.69818834     0.07120
C2283       C  0.08349694  0.82862577  0.70053417     0.00910
H2284       H  0.08416781  0.86022411  0.70756680     0.08570
H2285       H  0.08615690  0.81929460  0.69587633     0.07650
N2286       N  0.04504990  0.85138391  0.74244696    -0.36190
N2287       N  0.03929471  0.84130004  0.74866213    -0.28370
C2288       C  0.03014576  0.84600253  0.75711727    -0.03610
C2289       C  0.02992833  0.85970724  0.75619297     0.05000
C2290       C  0.03960132  0.86282131  0.74687945     0.03090
H2291       H  0.02398915  0.83984122  0.76341858     0.08200
H2292       H  0.04252420  0.87266591  0.74364162     0.07030
N2293       N  0.98108984  0.95117165  0.80793197    -0.27360
N2294       N  0.97365077  0.95342716  0.81846316    -0.35210
C2295       C  0.97309182  0.96657175  0.82074771     0.00980
C2296       C  0.98053056  0.97295878  0.81110528     0.07010
C2297       C  0.98555161  0.96285094  0.80319762    -0.06090
H2298       H  0.96788519  0.97104691  0.82900683     0.07680
H2299       H  0.99194804  0.96389236  0.79463183     0.08880
Cu2300     Cu  0.96455938  0.93843219  0.82892265     0.44170
Cu2301     Cu  0.98476167  0.93215642  0.80109894     0.41990
Cu2302     Cu  0.96818292  0.90417136  0.81815556     0.43880
N2303       N  0.95428990  0.92277783  0.83706148    -0.34740
N2304       N  0.95511708  0.91023974  0.83315005    -0.29000
C2305       C  0.94652503  0.90293831  0.84041580    -0.05100
C2306       C  0.94005973  0.91141253  0.84918877     0.07120
C2307       C  0.94533222  0.92382310  0.84682831     0.00910
H2308       H  0.94515750  0.89230180  0.83946767     0.08570
H2309       H  0.94273995  0.93302289  0.85177648     0.07650
N2310       N  0.98258658  0.90213994  0.80329971    -0.36190
N2311       N  0.98827512  0.91229159  0.79714993    -0.28370
C2312       C  0.99711579  0.90766111  0.78831848    -0.03610
C2313       C  0.99720779  0.89392606  0.78896072     0.05000
C2314       C  0.98777034  0.89074832  0.79849769     0.03090
H2315       H  0.00322322  0.91388502  0.78203079     0.08200
H2316       H  0.98461387  0.88093837  0.80154867     0.07030
C2317       C  0.14110386  0.83873161  0.63897960     0.03060
C2318       C  0.14914051  0.85017931  0.63903820    -0.13090
C2319       C  0.14893552  0.85912995  0.64973158     0.00560
C2320       C  0.14004846  0.85693424  0.66023297    -0.11610
C2321       C  0.13154964  0.84589278  0.66013020     0.03050
C2322       C  0.13246118  0.83660468  0.64972964    -0.11030
H2323       H  0.15590736  0.85197794  0.63086787     0.08650
H2324       H  0.13987735  0.86361557  0.66865311     0.06180
H2325       H  0.12667850  0.82758492  0.65033938     0.06030
N2326       N  0.03537856  0.69208921  0.48866361    -0.27360
N2327       N  0.03293161  0.68331394  0.47923150    -0.35210
C2328       C  0.01981011  0.68132123  0.47843771     0.00980
C2329       C  0.01376259  0.68922697  0.48788150     0.07010
C2330       C  0.02387169  0.69604221  0.49410966    -0.06090
H2331       H  0.01506721  0.67436009  0.47177111     0.07680
H2332       H  0.02298248  0.70292859  0.50231943     0.08880
Cu2333     Cu  0.04768938  0.67389488  0.46868714     0.44170
Cu2334     Cu  0.05435309  0.69718542  0.49411779     0.41990
Cu2335     Cu  0.08205358  0.68098930  0.47673346     0.43880
N2336       N  0.06355005  0.66446222  0.45988822    -0.34740
N2337       N  0.07614740  0.66666724  0.46278950    -0.29000
C2338       C  0.08370064  0.65844920  0.45533723    -0.05100
C2339       C  0.07535777  0.65085493  0.44744533     0.07120
C2340       C  0.06272036  0.65496345  0.45056816     0.00910
H2341       H  0.09441146  0.65807046  0.45558920     0.08570
H2342       H  0.05354834  0.65125392  0.44642705     0.07650
N2343       N  0.08411793  0.69577404  0.49129911    -0.36190
N2344       N  0.07403500  0.70114583  0.49770948    -0.28370
C2345       C  0.07853996  0.70993405  0.50664235    -0.03610
C2346       C  0.09227263  0.71053562  0.50581940     0.05000
C2347       C  0.09536724  0.70125866  0.49592904     0.03090
H2348       H  0.07199823  0.71523086  0.51323944     0.08200
H2349       H  0.10507146  0.69859775  0.49225529     0.07030
N2350       N  0.18760413  0.75596745  0.55636435    -0.27360
N2351       N  0.19020453  0.76359177  0.56667453    -0.35210
C2352       C  0.20335999  0.76417786  0.56847758     0.00980
C2353       C  0.20928918  0.75633054  0.55890266     0.07010
C2354       C  0.19902607  0.75135021  0.55127864    -0.06090
H2355       H  0.20822682  0.76973581  0.57627634     0.07680
H2356       H  0.19979227  0.74483359  0.54276015     0.08880
Cu2357     Cu  0.17535142  0.77261496  0.57730000     0.44170
Cu2358     Cu  0.16842793  0.75266655  0.55048506     0.41990
Cu2359     Cu  0.14092262  0.77180788  0.56585916     0.43880
N2360       N  0.16024202  0.78357550  0.58547286    -0.34740
N2361       N  0.14790564  0.78428798  0.58113855    -0.29000
C2362       C  0.14151678  0.79368674  0.58832328    -0.05100
C2363       C  0.15033504  0.79910769  0.59757355     0.07120
C2364       C  0.16197957  0.79209522  0.59550455     0.00910
H2365       H  0.13125069  0.79642115  0.58684227     0.08570
H2366       H  0.17120986  0.79282973  0.60085722     0.07650
N2367       N  0.13862882  0.75681163  0.55140915    -0.36190
N2368       N  0.14867948  0.75012517  0.54631907    -0.28370
C2369       C  0.14421692  0.74101131  0.53775673    -0.03610
C2370       C  0.13048184  0.74174293  0.53706042     0.05000
C2371       C  0.12738417  0.75200296  0.54600062     0.03090
H2372       H  0.15095173  0.73448453  0.53270579     0.08200
H2373       H  0.11767203  0.75576795  0.54851324     0.07030
N2374       N  0.92365146  0.70365323  0.23879555    -0.27360
N2375       N  0.91455372  0.70597929  0.22965530    -0.35210
C2376       C  0.91226631  0.71911684  0.22888620     0.00980
C2377       C  0.92029698  0.72539104  0.23807388     0.07010
C2378       C  0.92748956  0.71529195  0.24410913    -0.06090
H2379       H  0.90514997  0.72369532  0.22224246     0.07680
H2380       H  0.93460347  0.71627771  0.25209797     0.08880
Cu2381     Cu  0.90508335  0.69106725  0.21948231     0.44170
Cu2382     Cu  0.92939046  0.68458446  0.24387437     0.41990
Cu2383     Cu  0.91199080  0.65659776  0.22785014     0.43880
N2384       N  0.89534302  0.67520046  0.21116011    -0.34740
N2385       N  0.89754445  0.66254037  0.21410408    -0.29000
C2386       C  0.88915738  0.65498668  0.20689031    -0.05100
C2387       C  0.88144613  0.66341655  0.19915066     0.07120
C2388       C  0.88562911  0.67608943  0.20210316     0.00910
H2389       H  0.88874112  0.64422886  0.20721275     0.08570
H2390       H  0.88187920  0.68531832  0.19797729     0.07650
N2391       N  0.92718910  0.65455729  0.24190334    -0.36190
N2392       N  0.93332257  0.66473271  0.24751350    -0.28370
C2393       C  0.94245421  0.66015724  0.25609629    -0.03610
C2394       C  0.94224915  0.64639822  0.25590372     0.05000
C2395       C  0.93234957  0.64318981  0.24685462     0.03090
H2396       H  0.94853884  0.66648083  0.26227169     0.08200
H2397       H  0.92914508  0.63331363  0.24405358     0.07030
N2398       N  0.99012597  0.55250578  0.30523625    -0.27360
N2399       N  0.99937066  0.54971937  0.31409165    -0.35210
C2400       C  0.99999550  0.53649274  0.31582109     0.00980
C2401       C  0.99059812  0.53065716  0.30770744     0.07010
C2402       C  0.98457391  0.54111817  0.30102749    -0.06090
H2403       H  0.00659995  0.53150719  0.32270833     0.07680
H2404       H  0.97688004  0.54060378  0.29357616     0.08880
Cu2405     Cu  0.01014812  0.56416520  0.32368548     0.44170
Cu2406     Cu  0.98544912  0.57177732  0.30005095     0.41990
Cu2407     Cu  0.00187513  0.59902934  0.31799470     0.43880
N2408       N  0.01919829  0.57974271  0.33333013    -0.34740
N2409       N  0.01614303  0.59246782  0.33172163    -0.29000
C2410       C  0.02374148  0.59972954  0.34003309    -0.05100
C2411       C  0.03198408  0.59109116  0.34696464     0.07120
C2412       C  0.02880062  0.57855175  0.34249191     0.00910
H2413       H  0.02338749  0.61046033  0.34087950     0.08570
H2414       H  0.03306872  0.56920425  0.34575208     0.07650
N2415       N  0.98737358  0.60168074  0.30325515    -0.36190
N2416       N  0.98160499  0.59168465  0.29697654    -0.28370
C2417       C  0.97274976  0.59648008  0.28823977    -0.03610
C2418       C  0.97276149  0.61020366  0.28898901     0.05000
C2419       C  0.98227405  0.61318638  0.29852804     0.03090
H2420       H  0.96691729  0.59034058  0.28164420     0.08200
H2421       H  0.98518615  0.62298815  0.30185978     0.07030
N2422       N  0.17562810  0.50923585  0.44404302    -0.27360
N2423       N  0.16743283  0.51912992  0.44666908    -0.35210
C2424       C  0.16528871  0.51968023  0.45981602     0.00980
C2425       C  0.17240906  0.50950747  0.46573023     0.07010
C2426       C  0.17901430  0.50317138  0.45548599    -0.06090
H2427       H  0.15865307  0.52663019  0.46464022     0.07680
H2428       H  0.18532270  0.49447555  0.45622984     0.08880
Cu2429     Cu  0.15835945  0.53004675  0.43199088     0.44170
Cu2430     Cu  0.18030573  0.50412519  0.42477091     0.41990
Cu2431     Cu  0.16163648  0.52040579  0.39735614     0.43880
N2432       N  0.14716334  0.53796800  0.41687559    -0.34740
N2433       N  0.14789735  0.53460079  0.40419820    -0.29000
C2434       C  0.13842490  0.54139132  0.39748634    -0.05100
C2435       C  0.13135558  0.54915238  0.40650215     0.07120
C2436       C  0.13735446  0.54678825  0.41861060     0.00910
H2437       H  0.13661888  0.54053228  0.38691958     0.08570
H2438       H  0.13482106  0.55115311  0.42809780     0.07650
N2439       N  0.17633083  0.50572038  0.39485327    -0.36190
N2440       N  0.18290130  0.50014338  0.40483047    -0.28370
C2441       C  0.19161334  0.49126592  0.40003202    -0.03610
C2442       C  0.19049078  0.49100286  0.38638054     0.05000
C2443       C  0.18079572  0.50039872  0.38337822     0.03090
H2444       H  0.19827826  0.48536510  0.40609181     0.08200
H2445       H  0.17735058  0.50323886  0.37358249     0.07030
N2446       N  0.23892672  0.44127503  0.29409804    -0.27360
N2447       N  0.24754330  0.43176575  0.29143466    -0.35210
C2448       C  0.24856414  0.43033048  0.27822666     0.00980
C2449       C  0.24027163  0.43953879  0.27225673     0.07010
C2450       C  0.23416023  0.44620610  0.28261548    -0.06090
H2451       H  0.25448517  0.42275471  0.27343308     0.07680
H2452       H  0.22673926  0.45396486  0.28186264     0.08880
Cu2453     Cu  0.25714267  0.42114708  0.30598702     0.44170
Cu2454     Cu  0.23431792  0.44645759  0.31335557     0.41990
Cu2455     Cu  0.25256108  0.42987433  0.34071194     0.43880
N2456       N  0.26671522  0.41176743  0.32138667    -0.34740
N2457       N  0.26555963  0.41490891  0.33410155    -0.29000
C2458       C  0.27360478  0.40680192  0.34120497    -0.05100
C2459       C  0.27982043  0.39812561  0.33245565     0.07120
C2460       C  0.27527652  0.40164138  0.32003222     0.00910
H2461       H  0.27470810  0.40706589  0.35190058     0.08570
H2462       H  0.27805248  0.39720546  0.31064049     0.07650
N2463       N  0.23808798  0.44474938  0.34325360    -0.36190
N2464       N  0.23160460  0.45041276  0.33327221    -0.28370
C2465       C  0.22291469  0.45931361  0.33806634    -0.03610
C2466       C  0.22397332  0.45950285  0.35172429     0.05000
C2467       C  0.23360046  0.45004016  0.35473234     0.03090
H2468       H  0.21630478  0.46527241  0.33200250     0.08200
H2469       H  0.23696374  0.44711682  0.36453246     0.07030
N2470       N  0.43532552  0.19227126  0.49978807    -0.27360
N2471       N  0.43793958  0.18245148  0.50811723    -0.35210
C2472       C  0.45111843  0.18118901  0.50944034     0.00980
C2473       C  0.45705334  0.19073946  0.50153872     0.07010
C2474       C  0.44676793  0.19749172  0.49541182    -0.06090
H2475       H  0.45600851  0.17366372  0.51540928     0.07680
H2476       H  0.44754123  0.20548617  0.48822605     0.08880
Cu2477     Cu  0.42321689  0.17126392  0.51673182     0.44170
Cu2478     Cu  0.41619906  0.19752564  0.49499700     0.41990
Cu2479     Cu  0.38853857  0.17975555  0.51134913     0.43880
N2480       N  0.40764507  0.16198016  0.52608073    -0.34740
N2481       N  0.39501307  0.16509703  0.52479589    -0.29000
C2482       C  0.38796513  0.15749236  0.53332409    -0.05100
C2483       C  0.39663438  0.14908219  0.54033975     0.07120
C2484       C  0.40899530  0.15236629  0.53518585     0.00910
H2485       H  0.37738188  0.15839512  0.53427542     0.08570
H2486       H  0.41854287  0.14828115  0.53781960     0.07650
N2487       N  0.38636156  0.19456297  0.49671993    -0.36190
N2488       N  0.39643787  0.20084239  0.49112115    -0.28370
C2489       C  0.39186819  0.20964697  0.48217700    -0.03610
C2490       C  0.37820574  0.20888397  0.48185547     0.05000
C2491       C  0.37504330  0.19928262  0.49132738     0.03090
H2492       H  0.39814995  0.21625575  0.47650389     0.08200
H2493       H  0.36523847  0.19587129  0.49400193     0.07030
N2494       N  0.28438230  0.25673713  0.43330073    -0.27360
N2495       N  0.28155697  0.26742848  0.42620321    -0.35210
C2496       C  0.26835986  0.26894151  0.42558026     0.00980
C2497       C  0.26261049  0.25874961  0.43279841     0.07010
C2498       C  0.27305502  0.25109305  0.43743749    -0.06090
H2499       H  0.26333076  0.27661005  0.41991765     0.07680
H2500       H  0.27246566  0.24201663  0.44322196     0.08880
Cu2501     Cu  0.29591695  0.27859656  0.41701273     0.44170
Cu2502     Cu  0.30359569  0.25069935  0.43660507     0.41990
Cu2503     Cu  0.33067626  0.26967253  0.42094754     0.43880
N2504       N  0.31108118  0.28719424  0.40644803    -0.34740
N2505       N  0.32377565  0.28408170  0.40749147    -0.29000
C2506       C  0.33060022  0.29137561  0.39852469    -0.05100
C2507       C  0.32167389  0.29924858  0.39145681     0.07120
C2508       C  0.30945886  0.29639224  0.39692228     0.00910
H2509       H  0.34120750  0.29080693  0.39707514     0.08570
H2510       H  0.29999028  0.30069975  0.39424952     0.07650
N2511       N  0.33331044  0.25466956  0.43525491    -0.36190
N2512       N  0.32341423  0.24788322  0.44057582    -0.28370
C2513       C  0.32819431  0.23919594  0.44952216    -0.03610
C2514       C  0.34179747  0.24055295  0.45009650     0.05000
C2515       C  0.34472794  0.25037274  0.44078595     0.03090
H2516       H  0.32211063  0.23231289  0.45509115     0.08200
H2517       H  0.35442536  0.25424492  0.43835448     0.07030
N2518       N  0.48990030  0.45145463  0.18310424    -0.27360
N2519       N  0.49945418  0.45423389  0.17461818    -0.35210
C2520       C  0.50041910  0.46748052  0.17329887     0.00980
C2521       C  0.49094230  0.47335774  0.18132454     0.07010
C2522       C  0.48451518  0.46286312  0.18751812    -0.06090
H2523       H  0.50732034  0.47246184  0.16674184     0.07680
H2524       H  0.47666800  0.46333655  0.19479213     0.08880
Cu2525     Cu  0.51025742  0.43975384  0.16505957     0.44170
Cu2526     Cu  0.48465499  0.43218596  0.18757360     0.41990
Cu2527     Cu  0.50260073  0.40485192  0.17116901     0.43880
N2528       N  0.51943458  0.42415880  0.15552579    -0.34740
N2529       N  0.51670480  0.41140736  0.15738625    -0.29000
C2530       C  0.52429140  0.40414551  0.14904781    -0.05100
C2531       C  0.53207952  0.41284291  0.14173865     0.07120
C2532       C  0.52877685  0.42537791  0.14613063     0.00910
H2533       H  0.52411996  0.39340226  0.14832418     0.08570
H2534       H  0.53273851  0.43474918  0.14261709     0.07650
N2535       N  0.48748680  0.40227087  0.18519253    -0.36190
N2536       N  0.48093296  0.41228559  0.19066955    -0.28370
C2537       C  0.47171603  0.40749484  0.19898680    -0.03610
C2538       C  0.47240393  0.39379835  0.19880900     0.05000
C2539       C  0.48262704  0.39076789  0.19010823     0.03090
H2540       H  0.46518452  0.41357464  0.20497937     0.08200
H2541       H  0.48624706  0.38095465  0.18755361     0.07030
N2542       N  0.42476283  0.30263127  0.24962337    -0.27360
N2543       N  0.41361789  0.30037644  0.25607268    -0.35210
C2544       C  0.41091853  0.28732958  0.25581263     0.00980
C2545       C  0.42075981  0.28106948  0.24862507     0.07010
C2546       C  0.42951671  0.29101061  0.24497449    -0.06090
H2547       H  0.40224520  0.28279289  0.26021290     0.07680
H2548       H  0.43835732  0.28995581  0.23898571     0.08880
Cu2549     Cu  0.40240463  0.31527251  0.26424663     0.44170
Cu2550     Cu  0.43163951  0.32176133  0.24691312     0.41990
Cu2551     Cu  0.41216405  0.34962240  0.26183008     0.43880
N2552       N  0.39291379  0.33041803  0.27399486    -0.34740
N2553       N  0.39655437  0.34301029  0.27388989    -0.29000
C2554       C  0.38881493  0.34972975  0.28254158    -0.05100
C2555       C  0.37971181  0.34088303  0.28825060     0.07120
C2556       C  0.38280482  0.32875992  0.28240268     0.00910
H2557       H  0.39012188  0.36016833  0.28465844     0.08570
H2558       H  0.37836940  0.31915983  0.28422166     0.07650
N2559       N  0.42796099  0.35181134  0.24844570    -0.36190
N2560       N  0.43496081  0.34176096  0.24358392    -0.28370
C2561       C  0.44422704  0.34648564  0.23527853    -0.03610
C2562       C  0.44315560  0.36015756  0.23484600     0.05000
C2563       C  0.43262868  0.36323377  0.24315814     0.03090
H2564       H  0.45102252  0.34034959  0.22964774     0.08200
H2565       H  0.42861951  0.37302882  0.24514406     0.07030
C2566       C  0.32041403  0.35810298  0.33877755     0.03060
C2567       C  0.32001287  0.34916568  0.34945869    -0.13090
C2568       C  0.32991266  0.33947508  0.35100352     0.00560
C2569       C  0.34028376  0.33880854  0.34174860    -0.11610
C2570       C  0.34032249  0.34707713  0.33042652     0.03050
C2571       C  0.33040503  0.35689408  0.32915275    -0.11030
H2572       H  0.31197264  0.34974319  0.35658167     0.08650
H2573       H  0.34818519  0.33170420  0.34335746     0.06180
H2574       H  0.33030249  0.36346884  0.32059414     0.06030
C2575       C  0.08112987  0.60980280  0.40768385     0.03060
C2576       C  0.07109093  0.60899919  0.39796351    -0.13090
C2577       C  0.07032098  0.59804979  0.38927807     0.00560
C2578       C  0.07989542  0.58788484  0.39037618    -0.11610
C2579       C  0.09017065  0.58873766  0.39969962     0.03050
C2580       C  0.09064038  0.59958330  0.40842509    -0.11030
H2581       H  0.06410585  0.61708584  0.39702599     0.08650
H2582       H  0.07947037  0.57931288  0.38386253     0.06180
H2583       H  0.09852295  0.60010608  0.41573026     0.06030
C2584       C  0.89130354  0.89606424  0.91015029     0.03060
C2585       C  0.88114042  0.90559275  0.91013856    -0.13090
C2586       C  0.88046933  0.91532387  0.90007868     0.00560
C2587       C  0.88993355  0.91516552  0.88983134    -0.11610
C2588       C  0.90035157  0.90588496  0.89001651     0.03050
C2589       C  0.90095735  0.89630684  0.90015119    -0.11030
H2590       H  0.87383911  0.90550721  0.91803876     0.08650
H2591       H  0.88927058  0.92225797  0.88173295     0.06180
H2592       H  0.90896525  0.88909259  0.90028637     0.06030
C2593       C  0.35685372  0.35667117  0.31455997    -0.26380
C2594       C  0.35048818  0.34537743  0.31979261    -0.14460
C2595       C  0.35329225  0.33282736  0.31406992     0.36170
C2596       C  0.36277721  0.33180451  0.30404286    -0.25830
C2597       C  0.36943489  0.34301085  0.29887565    -0.15070
C2598       C  0.36598015  0.35570825  0.30397404     0.37260
N2599       N  0.37136680  0.36763596  0.29826556    -0.89320
H2600       H  0.35450607  0.36637928  0.31861525     0.18370
H2601       H  0.36470755  0.32194128  0.30028284     0.18360
N2602       N  0.34614617  0.32098303  0.31752104    -0.88350
H2603       H  0.36802799  0.37605524  0.30337289     0.35740
H2604       H  0.36760578  0.36843685  0.28860339     0.40840
H2605       H  0.33597664  0.32294389  0.31709220     0.40460
H2606       H  0.34877035  0.31783743  0.32704488     0.35350
C2607       C  0.47155020  0.37612621  0.21589146    -0.26380
C2608       C  0.46466283  0.38469589  0.20730692    -0.14460
C2609       C  0.45065324  0.38539165  0.20806242     0.36170
C2610       C  0.44397501  0.37770300  0.21756165    -0.25830
C2611       C  0.45086777  0.36915346  0.22617954    -0.15070
C2612       C  0.46488334  0.36848162  0.22542293     0.37260
N2613       N  0.47275285  0.36077372  0.23455951    -0.89320
H2614       H  0.48228598  0.37580257  0.21558730     0.18370
H2615       H  0.43324095  0.37804707  0.21787535     0.14840
N2616       N  0.44282045  0.39324177  0.19901027    -0.88350
H2617       H  0.47683227  0.35278938  0.22930338     0.35740
H2618       H  0.46713475  0.35689605  0.24235046     0.40840
H2619       H  0.44851232  0.39738387  0.19140901     0.40460
H2620       H  0.43861347  0.40106615  0.20440349     0.35350
C2621       C  0.33578229  0.31677917  0.38099242    -0.26380
C2622       C  0.32432655  0.30888165  0.38056724    -0.14460
C2623       C  0.31513780  0.31078248  0.37011027     0.36170
C2624       C  0.31728739  0.32092238  0.36076108    -0.25830
C2625       C  0.32849703  0.32911280  0.36141321    -0.15070
C2626       C  0.33793277  0.32698881  0.37165936     0.37260
N2627       N  0.34953722  0.33514186  0.37317977    -0.89320
H2628       H  0.34287605  0.31538565  0.38897153     0.18370
H2629       H  0.31021326  0.32237793  0.35276621     0.18360
N2630       N  0.30376130  0.30227765  0.36885819    -0.88350
H2631       H  0.34892161  0.33977228  0.38246040     0.35740
H2632       H  0.34980309  0.34282997  0.36620353     0.40840
H2633       H  0.30720871  0.29264452  0.36695152     0.40460
H2634       H  0.29797333  0.30506757  0.36068116     0.35350
C2635       C  0.36368642  0.22960168  0.45347664    -0.26380
C2636       C  0.35113961  0.23280190  0.45853054    -0.14460
C2637       C  0.34756854  0.22819753  0.47134410     0.36170
C2638       C  0.35648369  0.22023440  0.47860729    -0.25830
C2639       C  0.36900219  0.21693963  0.47352070    -0.15070
C2640       C  0.37259628  0.22161209  0.46072382     0.37260
N2641       N  0.38508638  0.21793486  0.45491584    -0.89320
H2642       H  0.36640559  0.23299045  0.44361737     0.18370
H2643       H  0.35374493  0.21685798  0.48846335     0.18360
N2644       N  0.33505644  0.23186905  0.47711210    -0.88350
H2645       H  0.38622070  0.22229438  0.44553452     0.35740
H2646       H  0.38497399  0.20763356  0.45344299     0.40840
H2647       H  0.33511762  0.24218430  0.47849100     0.40460
H2648       H  0.33394063  0.22758708  0.48653084     0.35350
C2649       C  0.30208518  0.39120320  0.34012083    -0.26380
C2650       C  0.28959445  0.38753293  0.33526157    -0.14460
C2651       C  0.28723080  0.37406899  0.33178861     0.36170
C2652       C  0.29753036  0.36475737  0.33298363    -0.25830
C2653       C  0.31009409  0.36848833  0.33756889    -0.15070
C2654       C  0.31240773  0.38188505  0.34124832     0.37260
N2655       N  0.32498355  0.38638852  0.34623482    -0.89320
H2656       H  0.30396265  0.40150660  0.34268736     0.18370
H2657       H  0.29570941  0.35447393  0.33029184     0.18360
N2658       N  0.27457877  0.36944969  0.32708196    -0.88350
H2659       H  0.32880965  0.39318162  0.33935098     0.35740
H2660       H  0.33185600  0.37865030  0.34700687     0.40840
H2661       H  0.26744536  0.37697515  0.32720855     0.40460
H2662       H  0.27122976  0.36221871  0.33377180     0.35350
C2663       C  0.11980473  0.56621433  0.39255419    -0.26380
C2664       C  0.12002347  0.55831556  0.40407932    -0.14460
C2665       C  0.10986139  0.55990728  0.41364070     0.36170
C2666       C  0.10024480  0.56987600  0.41185002    -0.25830
C2667       C  0.10032550  0.57810934  0.40059737    -0.15070
C2668       C  0.11016896  0.57617737  0.39071966     0.37260
N2669       N  0.11096890  0.58429594  0.37894063    -0.89320
H2670       H  0.12752153  0.56503947  0.38515861     0.18370
H2671       H  0.09259109  0.57124940  0.41928406     0.18360
N2672       N  0.10924599  0.55131689  0.42508081    -0.88350
H2673       H  0.11999773  0.58937293  0.37924526     0.35740
H2674       H  0.10360578  0.59159062  0.37868649     0.40840
H2675       H  0.10750783  0.54164870  0.42167382     0.40460
H2676       H  0.10121485  0.55384391  0.43114275     0.35350
C2677       C  0.21252605  0.48296862  0.37920778    -0.26380
C2678       C  0.19873434  0.48289051  0.37726969    -0.14460
C2679       C  0.19334239  0.47483948  0.36706630     0.36170
C2680       C  0.20193491  0.46752154  0.35889669    -0.25830
C2681       C  0.21572484  0.46760068  0.36083708    -0.15070
C2682       C  0.22111702  0.47564385  0.37104375     0.37260
N2683       N  0.23514524  0.47706006  0.37319795    -0.89320
H2684       H  0.21674107  0.48910306  0.38698730     0.18370
H2685       H  0.19772344  0.46138850  0.35111393     0.18360
N2686       N  0.17931466  0.47340495  0.36492238    -0.88350
H2687       H  0.23747126  0.48712936  0.37196254     0.35740
H2688       H  0.24068439  0.47204129  0.36605232     0.40840
H2689       H  0.17377640  0.47839190  0.37209016     0.40460
H2690       H  0.17700657  0.46332896  0.36613759     0.35350
C2691       C  0.03758037  0.59805519  0.36984698    -0.26380
C2692       C  0.04196525  0.59419336  0.35721413    -0.14460
C2693       C  0.05563725  0.59190191  0.35510543     0.36170
C2694       C  0.06454132  0.59378007  0.36561347    -0.25830
C2695       C  0.06022522  0.59741245  0.37840809    -0.15070
C2696       C  0.04644588  0.59947783  0.38048975     0.37260
N2697       N  0.04095797  0.60203077  0.39337212    -0.89320
H2698       H  0.02706464  0.59939962  0.37161173     0.18370
H2699       H  0.07500652  0.59219241  0.36375942     0.18360
N2700       N  0.06090565  0.58775231  0.34248473    -0.88350
H2701       H  0.04352210  0.61158596  0.39644055     0.35740
H2702       H  0.04465886  0.59500756  0.40011275     0.40840
H2703       H  0.05363528  0.58733588  0.33512439     0.40460
H2704       H  0.06465352  0.57810455  0.34366644     0.35350
C2705       C  0.94459388  0.62525911  0.26866070    -0.26380
C2706       C  0.95030565  0.63718004  0.26420869    -0.14460
C2707       C  0.96344513  0.64025181  0.26803828     0.36170
C2708       C  0.97041949  0.63147625  0.27643727    -0.25830
C2709       C  0.96471009  0.61954398  0.28084421    -0.15070
C2710       C  0.95158021  0.61647031  0.27701597     0.37260
N2711       N  0.94524354  0.60461226  0.28187457    -0.89320
H2712       H  0.93448385  0.62293871  0.26589852     0.18370
H2713       H  0.98053108  0.63377185  0.27922225     0.18360
N2714       N  0.96982134  0.65205649  0.26311037    -0.88350
H2715       H  0.93563383  0.60379904  0.27807219     0.35740
H2716       H  0.94431296  0.60554040  0.29218456     0.40840
H2717       H  0.97076323  0.65105440  0.25280822     0.40460
H2718       H  0.97942952  0.65286221  0.26691810     0.35350
C2719       C  0.07768240  0.64398744  0.42403056    -0.26380
C2720       C  0.07875784  0.64061835  0.43751478    -0.14460
C2721       C  0.08165439  0.62730997  0.44112246     0.36170
C2722       C  0.08271893  0.61763055  0.43114266    -0.25830
C2723       C  0.08128777  0.62087512  0.41758381    -0.15070
C2724       C  0.07928076  0.63442519  0.41402481     0.37260
N2725       N  0.07931434  0.63899734  0.40047751    -0.89320
H2726       H  0.07563260  0.65422063  0.42123332     0.18370
H2727       H  0.08425310  0.60735570  0.43409372     0.18360
N2728       N  0.08299557  0.62310250  0.45474210    -0.88350
H2729       H  0.06955839  0.64131759  0.39782335     0.35740
H2730       H  0.08291364  0.63177636  0.39396614     0.40840
H2731       H  0.08188216  0.63101807  0.46134545     0.40460
H2732       H  0.09266566  0.61955184  0.45599639     0.35350
C2733       C  0.11540216  0.71666530  0.51220741    -0.26380
C2734       C  0.10176739  0.71888218  0.51377109    -0.14460
C2735       C  0.09773127  0.72888314  0.52287973     0.36170
C2736       C  0.10730148  0.73578282  0.53037677    -0.25830
C2737       C  0.12099300  0.73355294  0.52883100    -0.15070
C2738       C  0.12492173  0.72377567  0.51934388     0.37260
N2739       N  0.13841103  0.72058972  0.51644009    -0.89320
H2740       H  0.11895445  0.70921741  0.50533493     0.18370
H2741       H  0.10384711  0.74316984  0.53734584     0.18360
N2742       N  0.08401271  0.73236672  0.52440649    -0.88350
H2743       H  0.14284806  0.71644811  0.52487612     0.35740
H2744       H  0.14327543  0.72911582  0.51304382     0.40840
H2745       H  0.08102485  0.73704000  0.51559537     0.40460
H2746       H  0.08270611  0.73937204  0.53197064     0.35350
C2747       C  0.15588473  0.82523104  0.62462195    -0.26380
C2748       C  0.14289210  0.82858960  0.62826716    -0.14460
C2749       C  0.13226620  0.82280815  0.62107603     0.36170
C2750       C  0.13490972  0.81333073  0.61116074    -0.25830
C2751       C  0.14795914  0.80979069  0.60769584    -0.15070
C2752       C  0.15855566  0.81648926  0.61410897     0.37260
N2753       N  0.17200388  0.81490089  0.60968980    -0.89320
H2754       H  0.16412239  0.82974745  0.62983855     0.18370
H2755       H  0.12661151  0.80874835  0.60612972     0.18360
N2756       N  0.11876648  0.82679918  0.62302319    -0.88350
H2757       H  0.17853770  0.82046088  0.61552373     0.35740
H2758       H  0.17258320  0.81881121  0.60006228     0.40840
H2759       H  0.11817553  0.83717734  0.62241403     0.40460
H2760       H  0.11553066  0.82367415  0.63235380     0.35350
C2761       C  0.93314952  0.91203672  0.87262801    -0.26380
C2762       C  0.93011330  0.90837250  0.85952061    -0.14460
C2763       C  0.91725622  0.90356030  0.85654447     0.36170
C2764       C  0.90785617  0.90261003  0.86678635    -0.25830
C2765       C  0.91087380  0.90649809  0.87982822    -0.15070
C2766       C  0.92374710  0.91119605  0.88281058     0.37260
N2767       N  0.92750494  0.91576556  0.89582583    -0.89320
H2768       H  0.94288566  0.91596692  0.87491899     0.18370
H2769       H  0.89798591  0.89904764  0.86448504     0.18360
N2770       N  0.91317782  0.90001714  0.84331130    -0.88350
H2771       H  0.93477541  0.90927592  0.89946086     0.35740
H2772       H  0.91964283  0.91551985  0.90254170     0.40840
H2773       H  0.92074019  0.90134946  0.83639520     0.40460
H2774       H  0.90555469  0.90652060  0.84052412     0.35350
C2775       C  0.10782560  0.84397428  0.66580365    -0.26380
C2776       C  0.12098080  0.84456896  0.67031546    -0.14460
C2777       C  0.12348943  0.84451354  0.68420783     0.36170
C2778       C  0.11274533  0.84428133  0.69308406    -0.25830
C2779       C  0.09964346  0.84357698  0.68849558    -0.15070
C2780       C  0.09714909  0.84343053  0.67465825     0.37260
N2781       N  0.08398445  0.84263792  0.66920520    -0.89320
H2782       H  0.10579842  0.84405172  0.65521328     0.18370
H2783       H  0.11467932  0.84398550  0.70368655     0.18360
N2784       N  0.13666810  0.84416836  0.68968209    -0.88350
H2785       H  0.08235165  0.85128318  0.66362100     0.35740
H2786       H  0.07675303  0.84259283  0.67661071     0.40840
H2787       H  0.14382128  0.84315772  0.68227796     0.40460
H2788       H  0.13746455  0.83553654  0.69546716     0.35350
C2789       C  0.02031584  0.86605339  0.77788176    -0.26380
C2790       C  0.02154470  0.86876042  0.76422718    -0.14460
C2791       C  0.01461486  0.87978225  0.75876044     0.36170
C2792       C  0.00693167  0.88784200  0.76713060    -0.25830
C2793       C  0.00547152  0.88493109  0.78072271    -0.15070
C2794       C  0.01236933  0.87391099  0.78613043     0.37260
N2795       N  0.01190897  0.87067043  0.79999698    -0.89320
H2796       H  0.02564816  0.85773170  0.78223157     0.18370
H2797       H  0.00165464  0.89623158  0.76284515     0.18360
N2798       N  0.01440913  0.88270393  0.74476896    -0.88350
H2799       H  0.00235111  0.86755957  0.80239989     0.35740
H2800       H  0.01425727  0.87916229  0.80550328     0.40840
H2801       H  0.01823810  0.87493080  0.73909373     0.40460
H2802       H  0.02027212  0.89112506  0.74318079     0.35350
C2803       C  0.86312587  0.65823206  0.16678983    -0.26380
C2804       C  0.84990346  0.65829174  0.17114360    -0.14460
C2805       C  0.84722492  0.65922158  0.18496687     0.36170
C2806       C  0.85785798  0.65985834  0.19394247    -0.25830
C2807       C  0.87101452  0.66009120  0.18950359    -0.15070
C2808       C  0.87370184  0.65921385  0.17574231     0.37260
N2809       N  0.88693742  0.65966380  0.17044649    -0.89320
H2810       H  0.86526493  0.65757018  0.15624767     0.18370
H2811       H  0.85580137  0.66088925  0.20447114     0.18360
N2812       N  0.83400421  0.66015460  0.19025963    -0.88350
H2813       H  0.88868070  0.65064131  0.16557902     0.35740
H2814       H  0.89405700  0.66032446  0.17794002     0.40840
H2815       H  0.82688905  0.66071652  0.18276853     0.40460
H2816       H  0.83329447  0.66917598  0.19538490     0.35350
C2817       C  0.78762142  0.62754765  0.15238290    -0.26380
C2818       C  0.79207342  0.61443821  0.15411124    -0.14460
C2819       C  0.80584677  0.61178367  0.15443527     0.36170
C2820       C  0.81479050  0.62232483  0.15289159    -0.25830
C2821       C  0.81038338  0.63551342  0.15133781    -0.15070
C2822       C  0.79656783  0.63811092  0.15118103     0.37260
N2823       N  0.79130203  0.65137178  0.15076057    -0.89320
H2824       H  0.77708290  0.62966643  0.15257118     0.18370
H2825       H  0.82532730  0.62020895  0.15312064     0.18360
N2826       N  0.81113487  0.59859984  0.15632204    -0.88350
H2827       H  0.79357326  0.65573853  0.14162922     0.35740
H2828       H  0.79562595  0.65693203  0.15838677     0.40840
H2829       H  0.80369150  0.59142676  0.15685186     0.40460
H2830       H  0.81609630  0.59845931  0.16545264     0.35350
C2831       C  0.71185239  0.52663957  0.10824915    -0.26380
C2832       C  0.69966133  0.52157202  0.11275186    -0.14460
C2833       C  0.69548293  0.52457424  0.12580834     0.36170
C2834       C  0.70359708  0.53242697  0.13399798    -0.25830
C2835       C  0.71574953  0.53754651  0.12946816    -0.15070
C2836       C  0.71995573  0.53450738  0.11643581     0.37260
N2837       N  0.73254959  0.53910334  0.11161500    -0.89320
H2838       H  0.71526374  0.52423806  0.09833686     0.18370
H2839       H  0.70020071  0.53482622  0.14391733     0.18360
N2840       N  0.68289363  0.51998935  0.13064767    -0.88350
H2841       H  0.73404646  0.53615457  0.10176469     0.35740
H2842       H  0.73991844  0.53443218  0.11727073     0.40840
H2843       H  0.67552034  0.52471961  0.12504701     0.40460
H2844       H  0.68143867  0.52288314  0.14052064     0.35350
C2845       C  0.90155790  0.87653489  0.94078727    -0.26380
C2846       C  0.89429916  0.86471948  0.93914986    -0.14460
C2847       C  0.88563733  0.86353280  0.92809988     0.36170
C2848       C  0.88445110  0.87423208  0.91916956    -0.25830
C2849       C  0.89197621  0.88584493  0.92068678    -0.15070
C2850       C  0.90053278  0.88709749  0.93173758     0.37260
N2851       N  0.90848257  0.89875684  0.93399413    -0.89320
H2852       H  0.90827049  0.87751607  0.94914913     0.18370
H2853       H  0.87798037  0.87324917  0.91061874     0.18360
N2854       N  0.87839596  0.85156250  0.92518424    -0.88350
H2855       H  0.90542044  0.90295904  0.94298732     0.35740
H2856       H  0.90694541  0.90601453  0.92671290     0.40840
H2857       H  0.88054929  0.84393460  0.93187221     0.40460
H2858       H  0.88158741  0.84813890  0.91590819     0.35350
C2859       C  0.82198247  0.69809724  0.12179176    -0.26380
C2860       C  0.82715760  0.69525654  0.10915764    -0.14460
C2861       C  0.83343254  0.68281205  0.10694095     0.36170
C2862       C  0.83434202  0.67364282  0.11745907    -0.25830
C2863       C  0.82897218  0.67646378  0.12999702    -0.15070
C2864       C  0.82279226  0.68890935  0.13223391     0.37260
N2865       N  0.81682097  0.69241909  0.14473871    -0.89320
H2866       H  0.81698375  0.70750896  0.12349975     0.18370
H2867       H  0.83902775  0.66407505  0.11574450     0.18360
N2868       N  0.83852605  0.67887314  0.09418177    -0.88350
H2869       H  0.82210518  0.70047210  0.14860819     0.35740
H2870       H  0.81748730  0.68474318  0.15171148     0.40840
H2871       H  0.83699429  0.68615437  0.08694988     0.40460
H2872       H  0.83316401  0.67053772  0.09108721     0.35350
C2873       C  0.86161021  0.77680724  0.03635723    -0.26380
C2874       C  0.85248699  0.76907062  0.02926634    -0.14460
C2875       C  0.85168656  0.77047544  0.01524838     0.36170
C2876       C  0.85969925  0.77990088  0.00884935    -0.25830
C2877       C  0.86882454  0.78763323  0.01593991    -0.15070
C2878       C  0.86962010  0.78623419  0.02995902     0.37260
N2879       N  0.87803692  0.79442780  0.03809336    -0.89320
H2880       H  0.86213425  0.77592448  0.04709145     0.18370
H2881       H  0.85917752  0.78078512  0.99811514     0.18360
N2882       N  0.84326344  0.76228803  0.00711517    -0.88350
H2883       H  0.87197118  0.79938315  0.04491430     0.35740
H2884       H  0.88253789  0.80195707  0.03257898     0.40840
H2885       H  0.83875197  0.75476559  0.01262991     0.40460
H2886       H  0.84932566  0.75732528  0.00029659     0.35350
C2887       C  0.55532901  0.41115990  0.13454816    -0.26380
C2888       C  0.54188915  0.40988454  0.13132455    -0.14460
C2889       C  0.53817601  0.40739396  0.11799678     0.36170
C2890       C  0.54801211  0.40687996  0.10816617    -0.25830
C2891       C  0.56148834  0.40859396  0.11128679    -0.15070
C2892       C  0.56515472  0.41035873  0.12478036     0.37260
N2893       N  0.57871348  0.41082510  0.12900578    -0.89320
H2894       H  0.55821019  0.41296108  0.14477438     0.18370
H2895       H  0.54504817  0.40537455  0.09791849     0.18360
N2896       N  0.52459155  0.40580915  0.11396595    -0.88350
H2897       H  0.58315896  0.41949901  0.12549032     0.35740
H2898       H  0.58370296  0.40254632  0.12517896     0.40840
H2899       H  0.51809469  0.40647950  0.12199739     0.40460
H2900       H  0.52358372  0.39618364  0.11016061     0.35350
C2901       C  0.61374422  0.42376107  0.08832860    -0.26380
C2902       C  0.60057006  0.42820495  0.08744133    -0.14460
C2903       C  0.59799415  0.44201896  0.08592739     0.36170
C2904       C  0.60867597  0.45092975  0.08560150    -0.25830
C2905       C  0.62180838  0.44641687  0.08635598    -0.15070
C2906       C  0.62439390  0.43264477  0.08773908     0.37260
N2907       N  0.63761341  0.42726145  0.08821139    -0.89320
H2908       H  0.61578951  0.41321328  0.08944701     0.18370
H2909       H  0.60671920  0.46145723  0.08417063     0.18360
N2910       N  0.58484698  0.44734242  0.08420041    -0.88350
H2911       H  0.63881242  0.42262205  0.09745265     0.35740
H2912       H  0.64479520  0.43469887  0.08770379     0.40840
H2913       H  0.57775527  0.43984077  0.08359032     0.40460
H2914       H  0.58458021  0.45219965  0.07499492     0.35350
C2915       C  0.58563258  0.37484908  0.07245425    -0.26380
C2916       C  0.57912490  0.38699880  0.07022115    -0.14460
C2917       C  0.57139924  0.38871309  0.05860316     0.36170
C2918       C  0.57025436  0.37813981  0.04963815    -0.25830
C2919       C  0.57658731  0.36588019  0.05191737    -0.15070
C2920       C  0.58443116  0.36421938  0.06350477     0.37260
N2921       N  0.59066327  0.35180059  0.06697860    -0.89320
H2922       H  0.59143308  0.37349758  0.08143587     0.18370
H2923       H  0.56420238  0.37947551  0.04081978     0.18360
N2924       N  0.56453178  0.40092951  0.05558543    -0.88350
H2925       H  0.60091368  0.35323532  0.06661613     0.35740
H2926       H  0.58840439  0.34423868  0.06028286     0.40840
H2927       H  0.56613934  0.40821402  0.06278078     0.40460
H2928       H  0.55437454  0.39889973  0.05565368     0.35350
C2929       C  0.65500156  0.19464935  0.87055688    -0.26380
C2930       C  0.64455623  0.19770276  0.87936831    -0.14460
C2931       C  0.63251328  0.19054044  0.87805013     0.36170
C2932       C  0.63142077  0.18049547  0.86846486    -0.25830
C2933       C  0.64199877  0.17728820  0.86000644    -0.15070
C2934       C  0.65386661  0.18458087  0.86094199     0.37260
N2935       N  0.66468255  0.18183158  0.85204966    -0.89320
H2936       H  0.66417035  0.20018858  0.87107318     0.18370
H2937       H  0.62222202  0.17499147  0.86772711     0.18360
N2938       N  0.62128303  0.19287414  0.88639674    -0.88350
H2939       H  0.67275541  0.18800261  0.85410647     0.35740
H2940       H  0.66153247  0.18418451  0.84241948     0.40840
H2941       H  0.61748855  0.20232247  0.88430269     0.40460
H2942       H  0.62420744  0.19221757  0.89634804     0.35350
C2943       C  0.62256596  0.28596889  0.96163897    -0.26380
C2944       C  0.61864295  0.27292845  0.95848218    -0.14460
C2945       C  0.60661268  0.26805002  0.96381109     0.36170
C2946       C  0.59884447  0.27628115  0.97191085    -0.25830
C2947       C  0.60275673  0.28933416  0.97501178    -0.15070
C2948       C  0.61482339  0.29417735  0.96976471     0.37260
N2949       N  0.61927731  0.30750769  0.97203086    -0.89320
H2950       H  0.63173256  0.28990518  0.95764628     0.18370
H2951       H  0.58964648  0.27239082  0.97587943     0.18360
N2952       N  0.60220492  0.25469174  0.96162803    -0.88350
H2953       H  0.62137440  0.30865327  0.98211954     0.35740
H2954       H  0.61175270  0.31413258  0.96926897     0.40840
H2955       H  0.60979469  0.24811579  0.96432669     0.40460
H2956       H  0.59999827  0.25350669  0.95156966     0.35350
C2957       C  0.86170851  0.94828707  0.90168685    -0.26380
C2958       C  0.84859731  0.94383440  0.90270539    -0.14460
C2959       C  0.84596255  0.93000301  0.90251041     0.36170
C2960       C  0.85651714  0.92101208  0.90117518    -0.25830
C2961       C  0.86968560  0.92541717  0.90030416    -0.15070
C2962       C  0.87226687  0.93927642  0.90063870     0.37260
N2963       N  0.88547626  0.94448222  0.90082899    -0.89320
H2964       H  0.86380269  0.95885322  0.90227718     0.18370
H2965       H  0.85442400  0.91042995  0.90104733     0.18360
N2966       N  0.83278942  0.92469810  0.90372738    -0.88350
H2967       H  0.89014078  0.94228437  0.89184530     0.35740
H2968       H  0.89071351  0.93995034  0.90859527     0.40840
H2969       H  0.82563549  0.93219526  0.90423587     0.40460
H2970       H  0.83233585  0.91941148  0.91268457     0.35350
C2971       C  0.67460074  0.11913269  0.84612986    -0.26380
C2972       C  0.67819126  0.11557036  0.83304740    -0.14460
C2973       C  0.67115163  0.12182717  0.82240883     0.36170
C2974       C  0.66154688  0.13145442  0.82506169    -0.25830
C2975       C  0.65807064  0.13504263  0.83803965    -0.15070
C2976       C  0.66452822  0.12857065  0.84874229     0.37260
N2977       N  0.66070562  0.13137160  0.86221468    -0.89320
H2978       H  0.67960768  0.11452779  0.85446725     0.18370
H2979       H  0.65686538  0.13636238  0.81667315     0.18360
N2980       N  0.67313406  0.11874586  0.80868724    -0.88350
H2981       H  0.66638605  0.12578626  0.86891156     0.35740
H2982       H  0.65088971  0.12827541  0.86338305     0.40840
H2983       H  0.67236207  0.10847708  0.80722408     0.40460
H2984       H  0.68219833  0.12262387  0.80556236     0.35350
C2985       C  0.76780596  0.03567248  0.85915560    -0.26380
C2986       C  0.75438457  0.03722580  0.86260134    -0.14460
C2987       C  0.74954013  0.03051540  0.87397228     0.36170
C2988       C  0.75812904  0.02255530  0.88153985    -0.25830
C2989       C  0.77152318  0.02095020  0.87803735    -0.15070
C2990       C  0.77638032  0.02769335  0.86669993     0.37260
N2991       N  0.79002462  0.02707025  0.86284295    -0.89320
H2992       H  0.77171567  0.04076502  0.85049738     0.18370
H2993       H  0.75424962  0.01747238  0.89021829     0.18360
N2994       N  0.73590061  0.03113752  0.87783329    -0.88350
H2995       H  0.79231796  0.01731089  0.86014322     0.35740
H2996       H  0.79589329  0.02984425  0.87094227     0.40840
H2997       H  0.73002987  0.02833035  0.86974722     0.40460
H2998       H  0.73360995  0.04090677  0.88050039     0.35350
C2999       C  0.40541710  0.13357690  0.55776685    -0.26380
C3000       C  0.39424346  0.13905084  0.55129398    -0.14460
C3001       C  0.38156738  0.13434057  0.55533355     0.36170
C3002       C  0.38052857  0.12482488  0.56556023    -0.25830
C3003       C  0.39177488  0.11949331  0.57190422    -0.15070
C3004       C  0.40440875  0.12382962  0.56760848     0.37260
N3005       N  0.41652971  0.11795455  0.57226644    -0.89320
H3006       H  0.41532228  0.13665032  0.55520911     0.18370
H3007       H  0.37075354  0.12151825  0.56853775     0.18360
N3008       N  0.36950448  0.13871224  0.54927340    -0.88350
H3009       H  0.41582232  0.10758513  0.57175570     0.35740
H3010       H  0.41844081  0.12094003  0.58199243     0.40840
H3011       H  0.37002764  0.13701781  0.53903704     0.40460
H3012       H  0.36817279  0.14881132  0.55131768     0.35350
C3013       C  0.36064101  0.05888329  0.57476523    -0.26380
C3014       C  0.35087424  0.05731346  0.58464256    -0.14460
C3015       C  0.35152644  0.06532722  0.59614845     0.36170
C3016       C  0.36179125  0.07470742  0.59740988    -0.25830
C3017       C  0.37129392  0.07648135  0.58736046    -0.15070
C3018       C  0.37086326  0.06823019  0.57598381     0.37260
N3019       N  0.38062161  0.06887549  0.56556913    -0.89320
H3020       H  0.36048194  0.05265908  0.56598853     0.18370
H3021       H  0.36213797  0.08103133  0.60612325     0.18360
N3022       N  0.34155815  0.06431447  0.60629158    -0.88350
H3023       H  0.38515641  0.05952352  0.56497146     0.35740
H3024       H  0.38820316  0.07552955  0.56783458     0.40840
H3025       H  0.33258746  0.06748631  0.60213496     0.40460
H3026       H  0.34360728  0.07079576  0.61414667     0.35350
C3027       C  0.16528700  0.89317826  0.65322078    -0.26380
C3028       C  0.17872880  0.88974754  0.65229508    -0.14460
C3029       C  0.18232559  0.87634077  0.64990786     0.36170
C3030       C  0.17236709  0.86667045  0.64902921    -0.25830
C3031       C  0.15889093  0.87000686  0.65035324    -0.15070
C3032       C  0.15535026  0.88353451  0.65212878     0.37260
N3033       N  0.14181835  0.88788076  0.65238328    -0.89320
H3034       H  0.16249312  0.90345436  0.65497974     0.18370
H3035       H  0.17521929  0.85636324  0.64756270     0.18360
N3036       N  0.19589634  0.87206609  0.64879491    -0.88350
H3037       H  0.13712219  0.88402427  0.66077294     0.35740
H3038       H  0.13705327  0.88434183  0.64386658     0.40840
H3039       H  0.20249551  0.87998776  0.64971503     0.40460
H3040       H  0.19719730  0.86824815  0.63921950     0.35350
C3041       C  0.24966334  0.97322084  0.61824125    -0.26380
C3042       C  0.25643403  0.96570574  0.62784737    -0.14460
C3043       C  0.27029044  0.96748717  0.62939827     0.36170
C3044       C  0.27688417  0.97688663  0.62150167    -0.25830
C3045       C  0.27011663  0.98439615  0.61187403    -0.15070
C3046       C  0.25623921  0.98266610  0.61040064     0.37260
N3047       N  0.24833133  0.99078969  0.60167535    -0.89320
H3048       H  0.23901950  0.97218128  0.61722353     0.18370
H3049       H  0.28752750  0.97791226  0.62252250     0.18360
N3050       N  0.27814976  0.95949706  0.63829705    -0.88350
H3051       H  0.24564643  0.98497400  0.59350354     0.35740
H3052       H  0.25350039  0.99908619  0.59822590     0.40840
H3053       H  0.27281968  0.95154152  0.64225834     0.40460
H3054       H  0.28116401  0.96557186  0.64615919     0.35350
C3055       C  0.59797780  0.15210281  0.80883221    -0.26380
C3056       C  0.59932421  0.16310232  0.80028106    -0.14460
C3057       C  0.61038206  0.17160532  0.80183261     0.36170
C3058       C  0.61932618  0.16936101  0.81228846    -0.25830
C3059       C  0.61777129  0.15862813  0.82106971    -0.15070
C3060       C  0.60699691  0.14978115  0.81925786     0.37260
N3061       N  0.60468640  0.13858538  0.82789248    -0.89320
H3062       H  0.58958542  0.14548913  0.80771575     0.18370
H3063       H  0.62774436  0.17593821  0.81349910     0.18360
N3064       N  0.61268303  0.18234392  0.79264416    -0.88350
H3065       H  0.59550706  0.14005113  0.83248306     0.35740
H3066       H  0.61163771  0.13807916  0.83555324     0.40840
H3067       H  0.61451706  0.17814043  0.78332212     0.40460
H3068       H  0.62119079  0.18766585  0.79524046     0.35350
C3069       C  0.41422047  0.09376057  0.63665368    -0.26380
C3070       C  0.42759072  0.09578690  0.63343864    -0.14460
C3071       C  0.43105419  0.09926070  0.62024809     0.36170
C3072       C  0.42107991  0.10012743  0.61057270    -0.25830
C3073       C  0.40771076  0.09770783  0.61367530    -0.15070
C3074       C  0.40425733  0.09483200  0.62701329     0.37260
N3075       N  0.39076008  0.09343208  0.63120212    -0.89320
H3076       H  0.41151050  0.09117757  0.64676413     0.18370
H3077       H  0.42387185  0.10237309  0.60040676     0.18360
N3078       N  0.44453423  0.10137455  0.61612152    -0.88350
H3079       H  0.38663140  0.08499358  0.62685276     0.35740
H3080       H  0.38544901  0.10183660  0.62810964     0.40840
H3081       H  0.45121613  0.10016091  0.62394216     0.40460
H3082       H  0.44532792  0.11127385  0.61298433     0.35350
C3083       C  0.49896709  0.13074278  0.71556936    -0.26380
C3084       C  0.50548589  0.12016851  0.70927624    -0.14460
C3085       C  0.51927632  0.11845788  0.71131169     0.36170
C3086       C  0.52614363  0.12725725  0.71958714    -0.25830
C3087       C  0.51963364  0.13786039  0.72587939    -0.15070
C3088       C  0.50581173  0.13951749  0.72387880     0.37260
N3089       N  0.49829094  0.14956754  0.73059939    -0.89320
H3090       H  0.48838176  0.13204403  0.71423205     0.18370
H3091       H  0.53672281  0.12592282  0.72092935     0.18360
N3092       N  0.52670127  0.10825612  0.70471027    -0.88350
H3093       H  0.50110659  0.15892299  0.72711425     0.35740
H3094       H  0.50019650  0.14891032  0.74079903     0.40840
H3095       H  0.52497239  0.10898862  0.69448373     0.40460
H3096       H  0.52353472  0.09896442  0.70807365     0.35350
C3097       C  0.22530038  0.26232807  0.43539041    -0.26380
C3098       C  0.22123523  0.24934374  0.43232774    -0.14460
C3099       C  0.23085283  0.23928454  0.43049449     0.36170
C3100       C  0.24432730  0.24260136  0.43113614    -0.25830
C3101       C  0.24837832  0.25568837  0.43372238    -0.15070
C3102       C  0.23872250  0.26561151  0.43625285     0.37260
N3103       N  0.24206725  0.27893949  0.44018341    -0.89320
H3104       H  0.21798773  0.27006469  0.43704776     0.18370
H3105       H  0.25171756  0.23497863  0.42930011     0.18360
N3106       N  0.22694075  0.22574597  0.42809006    -0.88350
H3107       H  0.24005054  0.28526083  0.43215697     0.35740
H3108       H  0.25206594  0.27987755  0.44261775     0.40840
H3109       H  0.22203434  0.22234118  0.43659209     0.40460
H3110       H  0.23524601  0.21962802  0.42686181     0.35350
C3111       C  0.15191451  0.19840832  0.36869980    -0.26380
C3112       C  0.14348571  0.19782260  0.37982517    -0.14460
C3113       C  0.13389932  0.18751193  0.38051963     0.36170
C3114       C  0.13301686  0.17830690  0.37004444    -0.25830
C3115       C  0.14175933  0.17872560  0.35921169    -0.15070
C3116       C  0.15121849  0.18905139  0.35843287     0.37260
N3117       N  0.16033694  0.19033922  0.34750665    -0.89320
H3118       H  0.15929359  0.20620879  0.36801435     0.18370
H3119       H  0.12579198  0.17035598  0.37065944     0.18360
N3120       N  0.12536516  0.18557011  0.39180953    -0.88350
H3121       H  0.15840663  0.19945697  0.34284477     0.35740
H3122       H  0.15885162  0.18303931  0.34030254     0.40840
H3123       H  0.12746702  0.19218805  0.39946249     0.40460
H3124       H  0.12737266  0.17610890  0.39569339     0.35350
C3125       C  0.08721004  0.37214084  0.55296991    -0.26380
C3126       C  0.07411867  0.36820955  0.55009867    -0.14460
C3127       C  0.06373031  0.37387048  0.55782818     0.36170
C3128       C  0.06655844  0.38354185  0.56731465    -0.25830
C3129       C  0.07956178  0.38753434  0.57016120    -0.15070
C3130       C  0.09006989  0.38149925  0.56304576     0.37260
N3131       N  0.10359717  0.38461615  0.56621956    -0.89320
H3132       H  0.09532334  0.36785302  0.54738561     0.18370
H3133       H  0.05827790  0.38805130  0.57248448     0.18360
N3134       N  0.05017495  0.36982649  0.55687829    -0.88350
H3135       H  0.11010647  0.37932532  0.56009991     0.35740
H3136       H  0.10537107  0.38137573  0.57594755     0.40840
H3137       H  0.04953855  0.35943968  0.55689654     0.40460
H3138       H  0.04587291  0.37408860  0.54844983     0.35350
C3139       C  0.11404535  0.29312463  0.47322856    -0.26380
C3140       C  0.10120842  0.28832025  0.47541467    -0.14460
C3141       C  0.09749861  0.27605073  0.46958658     0.36170
C3142       C  0.10662465  0.26909517  0.46160546    -0.25830
C3143       C  0.11953012  0.27384767  0.45946801    -0.15070
C3144       C  0.12319761  0.28612365  0.46546079     0.37260
N3145       N  0.13590298  0.29213842  0.46357731    -0.89320
H3146       H  0.11701655  0.30256961  0.47746055     0.18370
H3147       H  0.10368185  0.25970026  0.45725754     0.18360
N3148       N  0.08460352  0.27048976  0.47196818    -0.88350
H3149       H  0.13821746  0.29228260  0.45345070     0.35740
H3150       H  0.14298407  0.28681324  0.46896793     0.40840
H3151       H  0.08400508  0.26816653  0.48208788     0.40460
H3152       H  0.08340490  0.26154542  0.46680897     0.35350
C3153       C  0.16146716  0.50104828  0.50078457    -0.26380
C3154       C  0.17371595  0.50018001  0.50732714    -0.14460
C3155       C  0.18555401  0.50187566  0.49997010     0.36170
C3156       C  0.18474288  0.50477523  0.48637191    -0.25830
C3157       C  0.17247545  0.50582518  0.47989547    -0.15070
C3158       C  0.16065138  0.50358765  0.48714382     0.37260
N3159       N  0.14771951  0.50345745  0.48107735    -0.89320
H3160       H  0.15236817  0.49960026  0.50632650     0.18370
H3161       H  0.19381591  0.50623303  0.48079152     0.18360
N3162       N  0.19851142  0.50017970  0.50568473    -0.88350
H3163       H  0.14350298  0.49414876  0.48300733     0.35740
H3164       H  0.14825335  0.50408236  0.47075483     0.40840
H3165       H  0.19813915  0.49656717  0.51539626     0.40460
H3166       H  0.20305470  0.50952029  0.50593293     0.35350
C3167       C  0.09979169  0.43910553  0.57845945    -0.26380
C3168       C  0.10208266  0.42881607  0.58760041    -0.14460
C3169       C  0.11373031  0.42901523  0.59548305     0.36170
C3170       C  0.12298979  0.43926775  0.59363296    -0.25830
C3171       C  0.12095469  0.44926762  0.58408542    -0.15070
C3172       C  0.10901410  0.44932279  0.57665941     0.37260
N3173       N  0.10570955  0.45986312  0.56760841    -0.89320
H3174       H  0.09071970  0.43920221  0.57267735     0.18370
H3175       H  0.13206988  0.43915430  0.59939638     0.18360
N3176       N  0.11671981  0.41883018  0.60511313    -0.88350
H3177       H  0.11230580  0.45978171  0.55963827     0.35740
H3178       H  0.10650703  0.46893980  0.57261258     0.40840
H3179       H  0.10949116  0.41142661  0.60536464     0.40460
H3180       H  0.11676651  0.42330545  0.61448821     0.35350
C3181       C  0.19452980  0.52893612  0.62107901    -0.26380
C3182       C  0.20110222  0.52262425  0.61055264    -0.14460
C3183       C  0.21478603  0.52521864  0.60852898     0.36170
C3184       C  0.22125060  0.53446997  0.61670267    -0.25830
C3185       C  0.21465570  0.54081834  0.62719822    -0.15070
C3186       C  0.20098416  0.53818790  0.62924264     0.37260
N3187       N  0.19317325  0.54500574  0.63909591    -0.89320
H3188       H  0.18404490  0.52716431  0.62259400     0.18370
H3189       H  0.23173601  0.53624959  0.61519898     0.18360
N3190       N  0.22258240  0.51838031  0.59868033    -0.88350
H3191       H  0.18521584  0.54954342  0.63417905     0.35740
H3192       H  0.19836998  0.55287111  0.64334887     0.40840
H3193       H  0.21733734  0.51056616  0.59438994     0.40460
H3194       H  0.23049832  0.51378131  0.60360840     0.35350
C3195       C  0.17139471  0.11685765  0.34571466    -0.26380
C3196       C  0.18105039  0.11823476  0.33576281    -0.14460
C3197       C  0.18107362  0.12992957  0.32779322     0.36170
C3198       C  0.17083740  0.13926139  0.32925187    -0.25830
C3199       C  0.16092631  0.13763494  0.33884758    -0.15070
C3200       C  0.16131198  0.12638938  0.34736282     0.37260
N3201       N  0.15154956  0.12413654  0.35753095    -0.89320
H3202       H  0.17133771  0.10800641  0.35190236     0.18370
H3203       H  0.17070282  0.14800073  0.32289797     0.18360
N3204       N  0.19133959  0.13280009  0.31827756    -0.88350
H3205       H  0.14642377  0.11544736  0.35507089     0.35740
H3206       H  0.14452513  0.13176586  0.35785896     0.40840
H3207       H  0.19924691  0.12616278  0.31917115     0.40460
H3208       H  0.19534699  0.14207069  0.32072813     0.35350
C3209       C  0.29637387  0.98966749  0.48980573    -0.26380
C3210       C  0.29939396  0.00007896  0.48102758    -0.14460
C3211       C  0.30145994  0.01306003  0.48607243     0.36170
C3212       C  0.30012289  0.01525277  0.49973020    -0.25830
C3213       C  0.29724161  0.00482327  0.50858938    -0.15070
C3214       C  0.29524008  0.99186184  0.50346928     0.37260
N3215       N  0.29255681  0.98062098  0.51181070    -0.89320
H3216       H  0.29486766  0.97969603  0.48598719     0.18370
H3217       H  0.30177341  0.02521501  0.50350144     0.18360
N3218       N  0.30543370  0.02412216  0.47787043    -0.88350
H3219       H  0.28327997  0.98189264  0.51620283     0.35740
H3220       H  0.29986422  0.97997926  0.51915685     0.40840
H3221       H  0.30716664  0.02128356  0.46807166     0.40460
H3222       H  0.31456916  0.02749001  0.48142835     0.35350
C3223       C  0.26896385  0.01897811  0.36646896    -0.26380
C3224       C  0.27163986  0.02392923  0.37922731    -0.14460
C3225       C  0.26655071  0.03667943  0.38265735     0.36170
C3226       C  0.25918179  0.04399501  0.37336512    -0.25830
C3227       C  0.25659468  0.03908307  0.36059076    -0.15070
C3228       C  0.26156757  0.02629544  0.35718520     0.37260
N3229       N  0.25896197  0.02015203  0.34462407    -0.89320
H3230       H  0.27258186  0.00921688  0.36365287     0.18370
H3231       H  0.25554304  0.05375238  0.37617453     0.18360
N3232       N  0.26896786  0.04280427  0.39526092    -0.88350
H3233       H  0.26426929  0.02509462  0.33723013     0.35740
H3234       H  0.24880352  0.02062596  0.34263574     0.40840
H3235       H  0.27909715  0.04239487  0.39740087     0.40460
H3236       H  0.26351863  0.03786629  0.40255666     0.35350
C3237       C  0.29846257  0.64009757  0.65131024    -0.26380
C3238       C  0.31190745  0.63638190  0.65138446    -0.14460
C3239       C  0.31525410  0.62267050  0.65227606     0.36170
C3240       C  0.30513290  0.61325142  0.65377305    -0.25830
C3241       C  0.29175685  0.61699493  0.65379102    -0.15070
C3242       C  0.28834442  0.63060661  0.65250198     0.37260
N3243       N  0.27483208  0.63520339  0.65256791    -0.89320
H3244       H  0.29579344  0.65053268  0.65052574     0.18370
H3245       H  0.30775342  0.60282503  0.65483315     0.18360
N3246       N  0.32867865  0.61785004  0.65147950    -0.88350
H3247       H  0.27354822  0.64110163  0.66102503     0.35740
H3248       H  0.26812607  0.62735277  0.65335889     0.40840
H3249       H  0.33534627  0.62542833  0.64923045     0.40460
H3250       H  0.32918572  0.61130018  0.64342795     0.35350
C3251       C  0.36796132  0.65147319  0.68637370    -0.26380
C3252       C  0.37267805  0.66444267  0.68873556    -0.14460
C3253       C  0.36755938  0.67493902  0.68067812     0.36170
C3254       C  0.35755025  0.67240374  0.67148846    -0.25830
C3255       C  0.35279462  0.65951647  0.66909308    -0.15070
C3256       C  0.35837902  0.64883475  0.67646757     0.37260
N3257       N  0.35461971  0.63532518  0.67371354    -0.89320
H3258       H  0.37184386  0.64326446  0.69219042     0.18370
H3259       H  0.35344196  0.68084382  0.66617304     0.18360
N3260       N  0.37254230  0.68826765  0.68092305    -0.88350
H3261       H  0.35962218  0.62869516  0.67999329     0.35740
H3262       H  0.35766391  0.63314051  0.66402520     0.40840
H3263       H  0.38290039  0.68818876  0.68084368     0.40460
H3264       H  0.36865067  0.69331230  0.68909079     0.35350
C3265       C  0.54040444  0.59673708  0.87099869    -0.26380
C3266       C  0.54467941  0.59501191  0.85787659    -0.14460
C3267       C  0.55842846  0.59430087  0.85516138     0.36170
C3268       C  0.56752041  0.59559462  0.86563681    -0.25830
C3269       C  0.56328205  0.59725938  0.87883108    -0.15070
C3270       C  0.54946987  0.59766720  0.88149214     0.37260
N3271       N  0.54428474  0.59806221  0.89475253    -0.89320
H3272       H  0.52988424  0.59678200  0.87318532     0.18370
H3273       H  0.57802803  0.59514786  0.86345040     0.18360
N3274       N  0.56354658  0.59229644  0.84197148    -0.88350
H3275       H  0.54652250  0.60719935  0.89909408     0.35740
H3276       H  0.54861921  0.59039767  0.90031676     0.40840
H3277       H  0.55602222  0.59197050  0.83486176     0.40460
H3278       H  0.56827862  0.58302411  0.84183092     0.35350
C3279       C  0.46733869  0.61945118  0.76861192    -0.26380
C3280       C  0.46648219  0.62102945  0.78245968    -0.14460
C3281       C  0.45778309  0.63078073  0.78769206     0.36170
C3282       C  0.45049346  0.63882488  0.77890641    -0.25830
C3283       C  0.45132372  0.63723045  0.76505221    -0.15070
C3284       C  0.46009246  0.62753376  0.75982292     0.37260
N3285       N  0.46229349  0.62582817  0.74579158    -0.89320
H3286       H  0.47397844  0.61200327  0.76453874     0.18370
H3287       H  0.44384355  0.64625608  0.78299235     0.18360
N3288       N  0.45570714  0.63258655  0.80173008    -0.88350
H3289       H  0.47232876  0.62764959  0.74396579     0.35740
H3290       H  0.45714730  0.63284337  0.74014843     0.40840
H3291       H  0.46100374  0.62569549  0.80738845     0.40460
H3292       H  0.44570840  0.63069247  0.80367704     0.35350
C3293       C  0.11163943  0.15968825  0.29704376    -0.26380
C3294       C  0.09851824  0.16053419  0.30153212    -0.14460
C3295       C  0.09590971  0.16011554  0.31534920     0.36170
C3296       C  0.10649542  0.15877168  0.32428704    -0.25830
C3297       C  0.11967268  0.15809977  0.31985097    -0.15070
C3298       C  0.12222609  0.15860965  0.30600533     0.37260
N3299       N  0.13542579  0.15895276  0.30077150    -0.89320
H3300       H  0.11371375  0.16045004  0.28649375     0.18370
H3301       H  0.10441730  0.15849988  0.33485846     0.18360
N3302       N  0.08273158  0.16115492  0.32069596    -0.88350
H3303       H  0.14018781  0.14997372  0.30292257     0.35740
H3304       H  0.14058298  0.16672920  0.30531864     0.40840
H3305       H  0.07556058  0.16169334  0.31323545     0.40460
H3306       H  0.08218245  0.17005550  0.32604373     0.35350
C3307       C  0.02565815  0.12379557  0.22304304    -0.26380
C3308       C  0.02131327  0.13695352  0.22472255    -0.14460
C3309       C  0.00912252  0.14084824  0.21887891     0.36170
C3310       C  0.00181521  0.13158941  0.21137782    -0.25830
C3311       C  0.00610989  0.11837092  0.20976750    -0.15070
C3312       C  0.01828393  0.11451431  0.21580142     0.37260
N3313       N  0.02380097  0.10144261  0.21451311    -0.89320
H3314       H  0.03501634  0.12063380  0.22729997     0.18370
H3315       H  0.99249796  0.13469172  0.20699737     0.18360
N3316       N  0.00398079  0.15406372  0.22077204    -0.88350
H3317       H  0.02382018  0.09867164  0.20450317     0.35740
H3318       H  0.01825251  0.09480046  0.22021017     0.40840
H3319       H  0.00180222  0.15512849  0.23087564     0.40460
H3320       H  0.99505444  0.15536005  0.21563950     0.35350
C3321       C  0.35694733  0.92304139  0.40281767    -0.26380
C3322       C  0.36993822  0.92731059  0.40013940    -0.14460
C3323       C  0.37224880  0.94109519  0.39813321     0.36170
C3324       C  0.36158506  0.95013964  0.39884593    -0.25830
C3325       C  0.34877850  0.94584778  0.40204302    -0.15070
C3326       C  0.34640125  0.93208513  0.40393410     0.37260
N3327       N  0.33350935  0.92690981  0.40717108    -0.89320
H3328       H  0.35493383  0.91253559  0.40418634     0.18370
H3329       H  0.36341205  0.96070954  0.39767618     0.18360
N3330       N  0.38546823  0.94597461  0.39601839    -0.88350
H3331       H  0.33073402  0.92044903  0.39952837     0.35740
H3332       H  0.32631798  0.93438308  0.40736516     0.40840
H3333       H  0.39093180  0.94402626  0.40464620     0.40460
H3334       H  0.38543568  0.95630938  0.39473314     0.35350
C3335       C  0.39298608  0.87853758  0.44295024    -0.26380
C3336       C  0.39586350  0.86569255  0.43834340    -0.14460
C3337       C  0.39724908  0.86351739  0.42452106     0.36170
C3338       C  0.39550283  0.87419441  0.41570015    -0.25830
C3339       C  0.39281502  0.88715835  0.42023894    -0.15070
C3340       C  0.39165670  0.88930162  0.43413766     0.37260
N3341       N  0.39010408  0.90232697  0.43971694    -0.89320
H3342       H  0.39234282  0.88033204  0.45355635     0.18370
H3343       H  0.39645611  0.87234900  0.40512779     0.18360
N3344       N  0.40036511  0.85067184  0.41903101    -0.88350
H3345       H  0.38078428  0.90609571  0.43726926     0.35740
H3346       H  0.39742974  0.90856261  0.43582942     0.40840
H3347       H  0.40085208  0.84327681  0.42631496     0.40460
H3348       H  0.40976642  0.85130306  0.41471151     0.35350
C3349       C  0.24284479  0.73954374  0.55610812    -0.26380
C3350       C  0.25130691  0.75060959  0.55619615    -0.14460
C3351       C  0.24579393  0.76359847  0.55672156     0.36170
C3352       C  0.23199557  0.76503276  0.55706631    -0.25830
C3353       C  0.22358986  0.75393663  0.55738001    -0.15070
C3354       C  0.22910554  0.74098142  0.55690271     0.37260
N3355       N  0.22133011  0.72906386  0.55815483    -0.89320
H3356       H  0.24700478  0.72957865  0.55594514     0.18370
H3357       H  0.22779036  0.77496807  0.55751954     0.18360
N3358       N  0.25367706  0.77549685  0.55753476    -0.88350
H3359       H  0.22139030  0.72426159  0.54894470     0.35740
H3360       H  0.21150857  0.73100301  0.56067772     0.40840
H3361       H  0.26375407  0.77341435  0.55823395     0.40460
H3362       H  0.25122253  0.78029797  0.56641726     0.35350
C3363       C  0.33764300  0.68813428  0.60814693    -0.26380
C3364       C  0.32686754  0.69693499  0.60926168    -0.14460
C3365       C  0.31806627  0.69554595  0.62011868     0.36170
C3366       C  0.31984161  0.68502838  0.62915064    -0.25830
C3367       C  0.33037693  0.67601984  0.62784381    -0.15070
C3368       C  0.33947988  0.67762984  0.61723688     0.37260
N3369       N  0.35046904  0.66872169  0.61518401    -0.89320
H3370       H  0.34444758  0.68912473  0.59987585     0.18370
H3371       H  0.31306870  0.68395775  0.63744742     0.18360
N3372       N  0.30749645  0.70496016  0.62211001    -0.88350
H3373       H  0.34912235  0.66415758  0.60594963     0.35740
H3374       H  0.35061953  0.66104342  0.62218153     0.40840
H3375       H  0.31180563  0.71421721  0.62402904     0.40460
H3376       H  0.30192012  0.70247978  0.63051417     0.35350
C3377       C  0.36234226  0.78010126  0.53670900    -0.26380
C3378       C  0.35445704  0.77102985  0.52971209    -0.14460
C3379       C  0.35471359  0.77111175  0.51561060     0.36170
C3380       C  0.36253675  0.78053574  0.50895948    -0.25830
C3381       C  0.37040345  0.78962265  0.51595934    -0.15070
C3382       C  0.37016585  0.78952224  0.53005915     0.37260
N3383       N  0.37736794  0.79899781  0.53796759    -0.89320
H3384       H  0.36202648  0.78021924  0.54748392     0.18370
H3385       H  0.36284164  0.78043343  0.49818402     0.18360
N3386       N  0.34751294  0.76163058  0.50770619    -0.88350
H3387       H  0.37045155  0.80427965  0.54363519     0.35740
H3388       H  0.38208886  0.80611753  0.53210051     0.40840
H3389       H  0.34282963  0.75449155  0.51358119     0.40460
H3390       H  0.35442812  0.75636689  0.50202044     0.35350
C3391       C  0.43174571  0.91957547  0.37087610    -0.26380
C3392       C  0.43062757  0.91167699  0.35940206    -0.14460
C3393       C  0.42000746  0.90247682  0.35846834     0.36170
C3394       C  0.41101029  0.90141792  0.36906974    -0.25830
C3395       C  0.41200580  0.90958706  0.38031113    -0.15070
C3396       C  0.42261133  0.91868936  0.38130661     0.37260
N3397       N  0.42433393  0.92732940  0.39257042    -0.89320
H3398       H  0.43976817  0.92669059  0.37169209     0.18370
H3399       H  0.40282200  0.89449186  0.36829236     0.18360
N3400       N  0.41758135  0.89452324  0.34684049    -0.88350
H3401       H  0.43333009  0.92480274  0.39709242     0.35740
H3402       H  0.41700302  0.92590469  0.39973898     0.40840
H3403       H  0.42417359  0.89668532  0.33918902     0.40460
H3404       H  0.40821384  0.89711104  0.34319303     0.35350
C3405       C  0.52695277  0.88079647  0.26910963    -0.26380
C3406       C  0.52105343  0.86914400  0.26426811    -0.14460
C3407       C  0.50786528  0.86614049  0.26799582     0.36170
C3408       C  0.50104575  0.87467938  0.27670683    -0.25830
C3409       C  0.50695000  0.88632967  0.28152874    -0.15070
C3410       C  0.52011475  0.88935672  0.27777588     0.37260
N3411       N  0.52663508  0.90092495  0.28302187    -0.89320
H3412       H  0.53709374  0.88306060  0.26641823     0.18370
H3413       H  0.49090341  0.87243486  0.27941685     0.18360
N3414       N  0.50128690  0.85464844  0.26266125    -0.88350
H3415       H  0.53624548  0.90174406  0.27923222     0.35740
H3416       H  0.52757890  0.89958550  0.29329215     0.40840
H3417       H  0.50035229  0.85607353  0.25240124     0.40460
H3418       H  0.49167040  0.85385093  0.26644019     0.35350
C3419       C  0.62133441  0.85091251  0.18119203    -0.26380
C3420       C  0.61856969  0.84768932  0.16785370    -0.14460
C3421       C  0.60554685  0.84387320  0.16439160     0.36170
C3422       C  0.59587797  0.84268959  0.17439879    -0.25830
C3423       C  0.59877208  0.84564761  0.18771490    -0.15070
C3424       C  0.61165649  0.84996795  0.19114182     0.37260
N3425       N  0.61545639  0.85305984  0.20457597    -0.89320
H3426       H  0.63128349  0.85377671  0.18404848     0.18370
H3427       H  0.58600848  0.83931960  0.17182602     0.18360
N3428       N  0.60215003  0.84127077  0.15076416    -0.88350
H3429       H  0.62266413  0.84614707  0.20749024     0.35740
H3430       H  0.60759112  0.85204213  0.21121036     0.40840
H3431       H  0.60325434  0.85017529  0.14547922     0.40460
H3432       H  0.59218972  0.83854908  0.14993207     0.35350
C3433       C  0.90771734  0.09661822  0.12317871    -0.26380
C3434       C  0.91147960  0.09667611  0.10973072    -0.14460
C3435       C  0.92516169  0.09600125  0.10648247     0.36170
C3436       C  0.93457466  0.09566910  0.11675605    -0.25830
C3437       C  0.93076682  0.09547485  0.13014756    -0.15070
C3438       C  0.91713981  0.09593566  0.13341781     0.37260
N3439       N  0.91246159  0.09534672  0.14691621    -0.89320
H3440       H  0.89729686  0.09705434  0.12576460     0.18370
H3441       H  0.94499255  0.09488077  0.11423451     0.18360
N3442       N  0.92990196  0.09506781  0.09301554    -0.88350
H3443       H  0.90740330  0.10423132  0.14884250     0.35740
H3444       H  0.92025859  0.09488719  0.15371948     0.40840
H3445       H  0.92215975  0.09409283  0.08623159     0.40460
H3446       H  0.93533458  0.08622375  0.09223862     0.35350
C3447       C  0.79674201  0.98923903  0.98936939    -0.26380
C3448       C  0.79990500  0.99954419  0.98051214    -0.14460
C3449       C  0.80239337  0.01247128  0.98550987     0.36170
C3450       C  0.80117120  0.01475075  0.99916654    -0.25830
C3451       C  0.79812445  0.00443054  0.00810210    -0.15070
C3452       C  0.79581961  0.99149119  0.00303813     0.37260
N3453       N  0.79301506  0.98031156  0.01141965    -0.89320
H3454       H  0.79494993  0.97929301  0.98561022     0.18370
H3455       H  0.80306004  0.02469470  0.00286659     0.18360
N3456       N  0.80672488  0.02337287  0.97727559    -0.88350
H3457       H  0.78375064  0.98168800  0.01580327     0.35740
H3458       H  0.80033346  0.97958154  0.01874699     0.40840
H3459       H  0.80856813  0.02039887  0.96754076     0.40460
H3460       H  0.81589325  0.02655025  0.98092420     0.35350
C3461       C  0.87048234  0.07136341  0.07637849    -0.26380
C3462       C  0.87040792  0.07856352  0.08826214    -0.14460
C3463       C  0.86091209  0.07534912  0.09813044     0.36170
C3464       C  0.85150894  0.06533638  0.09556742    -0.25830
C3465       C  0.85122622  0.05843989  0.08339186    -0.15070
C3466       C  0.86117886  0.06143084  0.07381278     0.37260
N3467       N  0.86259095  0.05436244  0.06154777    -0.89320
H3468       H  0.87791676  0.07353450  0.06889940     0.18370
H3469       H  0.84411161  0.06322138  0.10307544     0.18360
N3470       N  0.86011891  0.08229095  0.11059057    -0.88350
H3471       H  0.85543832  0.05766583  0.05481508     0.35740
H3472       H  0.86185175  0.04412290  0.06326105     0.40840
H3473       H  0.86694817  0.09004313  0.11117121     0.40460
H3474       H  0.86250155  0.07549920  0.11812081     0.35350
C3475       C  0.67837460  0.88323255  0.14388863    -0.26380
C3476       C  0.68038177  0.88864466  0.15662066    -0.14460
C3477       C  0.67192102  0.88435979  0.16708192     0.36170
C3478       C  0.66266364  0.87432745  0.16483123    -0.25830
C3479       C  0.66078475  0.86868542  0.15221575    -0.15070
C3480       C  0.66852010  0.87355420  0.14149608     0.37260
N3481       N  0.66620207  0.86893326  0.12818269    -0.89320
H3482       H  0.68450502  0.88658061  0.13571121     0.18370
H3483       H  0.65692569  0.87087140  0.17324953     0.18360
N3484       N  0.67183340  0.89032801  0.18000057    -0.88350
H3485       H  0.67269321  0.87350268  0.12149118     0.35740
H3486       H  0.65663428  0.87188828  0.12546238     0.40840
H3487       H  0.67216403  0.90069598  0.17912319     0.40460
H3488       H  0.67973899  0.88665201  0.18559255     0.35350
C3489       C  0.75904130  0.96289911  0.11592176    -0.26380
C3490       C  0.75533590  0.96821182  0.12825606    -0.14460
C3491       C  0.76015434  0.98093194  0.13193548     0.36170
C3492       C  0.76878919  0.98781504  0.12337910    -0.25830
C3493       C  0.77245555  0.98251558  0.11104616    -0.15070
C3494       C  0.76761318  0.96983191  0.10732967     0.37260
N3495       N  0.77164954  0.96386491  0.09499565    -0.89320
H3496       H  0.75552741  0.95311761  0.11311257     0.18370
H3497       H  0.77231775  0.99759983  0.12616728     0.18360
N3498       N  0.75598977  0.98703187  0.14415965    -0.88350
H3499       H  0.76716332  0.95457829  0.09373239     0.35740
H3500       H  0.78185544  0.96213420  0.09555516     0.40840
H3501       H  0.74579664  0.98878740  0.14345692     0.40460
H3502       H  0.76048552  0.99631707  0.14539915     0.35350
C3503       C  0.89530291  0.13296022  0.07425383    -0.26380
C3504       C  0.89142834  0.12011175  0.07033326    -0.14460
C3505       C  0.88870027  0.11776323  0.05670549     0.36170
C3506       C  0.88978178  0.12828339  0.04748732    -0.25830
C3507       C  0.89408117  0.14092641  0.05142370    -0.15070
C3508       C  0.89680112  0.14332448  0.06502063     0.37260
N3509       N  0.90121827  0.15604877  0.06984202    -0.89320
H3510       H  0.89729760  0.13499788  0.08463823     0.18370
H3511       H  0.88798821  0.12641966  0.03702873     0.18360
N3512       N  0.88546609  0.10461013  0.05213294    -0.88350
H3513       H  0.89415438  0.15947614  0.07662858     0.35740
H3514       H  0.90157285  0.16316841  0.06228644     0.40840
H3515       H  0.89373005  0.09853271  0.05380497     0.40460
H3516       H  0.88377109  0.10460468  0.04187522     0.35350
C3517       C  0.74473934  0.24321036  0.93433555    -0.26380
C3518       C  0.74869084  0.25659857  0.93412579    -0.14460
C3519       C  0.73886114  0.26672924  0.93428539     0.36170
C3520       C  0.72548141  0.26313935  0.93337689    -0.25830
C3521       C  0.72159931  0.24975113  0.93295635    -0.15070
C3522       C  0.73137811  0.23968655  0.93384445     0.37260
N3523       N  0.72810145  0.22583757  0.93467652    -0.89320
H3524       H  0.75211021  0.23534725  0.93450545     0.18370
H3525       H  0.71803086  0.27092800  0.93308224     0.18360
N3526       N  0.74196743  0.28064407  0.93566621    -0.88350
H3527       H  0.72378507  0.22282361  0.92576195     0.35740
H3528       H  0.72135454  0.22446806  0.94244218     0.40840
H3529       H  0.75182632  0.28199410  0.93842427     0.40460
H3530       H  0.73656423  0.28427164  0.94376051     0.35350
C3531       C  0.85862016  0.22162004  0.97935871    -0.26380
C3532       C  0.87070801  0.21786519  0.97358679    -0.14460
C3533       C  0.87332465  0.22182283  0.96028879     0.36170
C3534       C  0.86387904  0.22922751  0.95321695    -0.25830
C3535       C  0.85173962  0.23289357  0.95894761    -0.15070
C3536       C  0.84918808  0.22905876  0.97230236     0.37260
N3537       N  0.83741094  0.23292053  0.97924030    -0.89320
H3538       H  0.85648610  0.21882982  0.98955109     0.18370
H3539       H  0.86602056  0.23199431  0.94302114     0.18360
N3540       N  0.88518444  0.21809887  0.95341890    -0.88350
H3541       H  0.82934470  0.22778486  0.97532622     0.35740
H3542       H  0.83600339  0.24318245  0.97816786     0.40840
H3543       H  0.88657543  0.20781811  0.95430930     0.40460
H3544       H  0.89319889  0.22313691  0.95756675     0.35350
C3545       C  0.82009183  0.32075272  0.86024476    -0.26380
C3546       C  0.83062084  0.32963425  0.86203187    -0.14460
C3547       C  0.83914335  0.32797606  0.87311881     0.36170
C3548       C  0.83653392  0.31778374  0.88235582    -0.25830
C3549       C  0.82560454  0.30926495  0.88087076    -0.15070
C3550       C  0.81752374  0.31061645  0.86939805     0.37260
N3551       N  0.80703004  0.30153156  0.86634769    -0.89320
H3552       H  0.81378253  0.32169023  0.85155564     0.18370
H3553       H  0.84287909  0.31679613  0.89100182     0.18360
N3554       N  0.85016277  0.33666093  0.87564010    -0.88350
H3555       H  0.79922337  0.30291921  0.87297428     0.35740
H3556       H  0.81061608  0.29178399  0.86709531     0.40840
H3557       H  0.85074873  0.34434764  0.86867773     0.40460
H3558       H  0.85882697  0.33100691  0.87474218     0.35350
C3559       C  0.68544549  0.50397394  0.98871266    -0.26380
C3560       C  0.67320060  0.50562131  0.98232226    -0.14460
C3561       C  0.66138074  0.50341705  0.98949345     0.36170
C3562       C  0.66205623  0.49993912  0.00289363    -0.25830
C3563       C  0.67427300  0.49856437  0.00941727    -0.15070
C3564       C  0.68618153  0.50037149  0.00216753     0.37260
N3565       N  0.69910279  0.49829632  0.00788414    -0.89320
H3566       H  0.69453943  0.50538948  0.98315746     0.18370
H3567       H  0.65289506  0.49840639  0.00830589     0.18360
N3568       N  0.64857573  0.50410986  0.98336350    -0.88350
H3569       H  0.70375755  0.49075885  0.00244480     0.35740
H3570       H  0.69854213  0.49471208  0.01759399     0.40840
H3571       H  0.64848034  0.49778956  0.97511829     0.40460
H3572       H  0.64680286  0.51385991  0.98022536     0.35350
C3573       C  0.60030931  0.56416772  0.89885858    -0.26380
C3574       C  0.60300653  0.57753206  0.90206899    -0.14460
C3575       C  0.61605493  0.58104078  0.90583174     0.36170
C3576       C  0.62578968  0.57109667  0.90697708    -0.25830
C3577       C  0.62302823  0.55777185  0.90398081    -0.15070
C3578       C  0.61012597  0.55425297  0.89973159     0.37260
N3579       N  0.60647437  0.54078251  0.89659705    -0.89320
H3580       H  0.59037769  0.56129127  0.89596936     0.18370
H3581       H  0.63566967  0.57375432  0.91025962     0.18360
N3582       N  0.61945283  0.59470455  0.90833724    -0.88350
H3583       H  0.59931663  0.53778309  0.90348588     0.35740
H3584       H  0.61442605  0.53421750  0.89762942     0.40840
H3585       H  0.61834787  0.59993470  0.89940336     0.40460
H3586       H  0.62940716  0.59556041  0.91108951     0.35350
C3587       C  0.79087715  0.37658016  0.83089820    -0.26380
C3588       C  0.79344522  0.38934595  0.83594727    -0.14460
C3589       C  0.80584115  0.39192776  0.84202989     0.36170
C3590       C  0.81522201  0.38163989  0.84295045    -0.25830
C3591       C  0.81265532  0.36893019  0.83783517    -0.15070
C3592       C  0.80025677  0.36630572  0.83183817     0.37260
N3593       N  0.79693050  0.35352248  0.82635734    -0.89320
H3594       H  0.78149713  0.37460941  0.82602768     0.18370
H3595       H  0.82470658  0.38362910  0.84760320     0.18360
N3596       N  0.80946382  0.40482867  0.84702608    -0.88350
H3597       H  0.78901979  0.34971279  0.83187997     0.35740
H3598       H  0.80470512  0.34671666  0.82728117     0.40840
H3599       H  0.80196346  0.41184231  0.84564701     0.40460
H3600       H  0.81756079  0.40817203  0.84147171     0.35350
C3601       C  0.72344813  0.47291264  0.87300116    -0.26380
C3602       C  0.71716917  0.46695905  0.86209923    -0.14460
C3603       C  0.70337398  0.46895294  0.86029269     0.36170
C3604       C  0.69630971  0.47689837  0.86924933    -0.25830
C3605       C  0.70258268  0.48288527  0.88013601    -0.15070
C3606       C  0.71637945  0.48087269  0.88196047     0.37260
N3607       N  0.72364177  0.48722022  0.89240698    -0.89320
H3608       H  0.73401486  0.47157144  0.87443887     0.18370
H3609       H  0.68574431  0.47823037  0.86779440     0.18360
N3610       N  0.69610816  0.46260815  0.84984497    -0.88350
H3611       H  0.72055135  0.48341500  0.90154166     0.35740
H3612       H  0.72174523  0.49745373  0.89206619     0.40840
H3613       H  0.69800981  0.45237544  0.85018006     0.40460
H3614       H  0.69918596  0.46641461  0.84070639     0.35350
C3615       C  0.58709016  0.63432573  0.93698125    -0.26380
C3616       C  0.57403147  0.63638092  0.94160997    -0.14460
C3617       C  0.56377592  0.62873665  0.93550849     0.36170
C3618       C  0.56680738  0.61960005  0.92555390    -0.25830
C3619       C  0.57971236  0.61780653  0.92085373    -0.15070
C3620       C  0.59003618  0.62546334  0.92655124     0.37260
N3621       N  0.60349587  0.62489828  0.92185680    -0.89320
H3622       H  0.59521667  0.63990618  0.94117812     0.18370
H3623       H  0.55880304  0.61375946  0.92136815     0.18360
N3624       N  0.55007285  0.62976660  0.93888736    -0.88350
H3625       H  0.60616886  0.63452176  0.91893141     0.35740
H3626       H  0.60432179  0.61916540  0.91327914     0.40840
H3627       H  0.54666138  0.63933349  0.93661540     0.40460
H3628       H  0.54876324  0.62717436  0.94886260     0.35350
C3629       C  0.73018922  0.75781346  0.06943040    -0.26380
C3630       C  0.72254877  0.75371241  0.05851190    -0.14460
C3631       C  0.72900312  0.74786987  0.04744970     0.36170
C3632       C  0.74275575  0.74613456  0.04769777    -0.25830
C3633       C  0.75024080  0.74996020  0.05877001    -0.15070
C3634       C  0.74393186  0.75619737  0.06965692     0.37260
N3635       N  0.75107270  0.76118879  0.08099398    -0.89320
H3636       H  0.72545788  0.76238446  0.07794919     0.18370
H3637       H  0.74760338  0.74142560  0.03931165     0.18360
N3638       N  0.72203043  0.74386641  0.03572623    -0.88350
H3639       H  0.74920744  0.77141761  0.08159354     0.35740
H3640       H  0.76129629  0.76030874  0.07980102     0.40840
H3641       H  0.71624915  0.75183271  0.03234078     0.40460
H3642       H  0.71596639  0.73579510  0.03803661     0.35350
C3643       C  0.64255866  0.80386575  0.12181364    -0.26380
C3644       C  0.64640773  0.80818332  0.10912196    -0.14460
C3645       C  0.64931160  0.82181410  0.10707767     0.36170
C3646       C  0.64822202  0.83070997  0.11770535    -0.25830
C3647       C  0.64458171  0.82646033  0.13052061    -0.15070
C3648       C  0.64193325  0.81271232  0.13260352     0.37260
N3649       N  0.63957175  0.80715001  0.14555732    -0.89320
H3650       H  0.64076790  0.79336271  0.12353756     0.18370
H3651       H  0.65007255  0.84117545  0.11582635     0.18360
N3652       N  0.65302437  0.82712220  0.09432051    -0.88350
H3653       H  0.62949542  0.80485732  0.14624126     0.35740
H3654       H  0.64197076  0.81380303  0.15312960     0.40840
H3655       H  0.65238927  0.82004601  0.08677835     0.40460
H3656       H  0.66291507  0.83013933  0.09494102     0.35350
C3657       C  0.60753480  0.72726041  0.03786438    -0.26380
C3658       C  0.61987030  0.73093519  0.03265298    -0.14460
C3659       C  0.62340291  0.72667141  0.01972384     0.36170
C3660       C  0.61464868  0.71857354  0.01247500    -0.25830
C3661       C  0.60233060  0.71484659  0.01771556    -0.15070
C3662       C  0.59879772  0.71914290  0.03064208     0.37260
N3663       N  0.58654075  0.71494971  0.03658587    -0.89320
H3664       H  0.60487220  0.73036815  0.04782085     0.18370
H3665       H  0.61731527  0.71545087  0.00252452     0.18360
N3666       N  0.63570417  0.73082513  0.01384717    -0.88350
H3667       H  0.58542681  0.71904285  0.04607098     0.35740
H3668       H  0.58702732  0.70462296  0.03784607     0.40840
H3669       H  0.63528634  0.74116240  0.01265109     0.40460
H3670       H  0.63680933  0.72678374  0.00433891     0.35350
C3671       C  0.04002567  0.41084202  0.61838157    -0.26380
C3672       C  0.04395527  0.41144080  0.63171468    -0.14460
C3673       C  0.05760732  0.41116690  0.63492730     0.36170
C3674       C  0.06696582  0.41018915  0.62467333    -0.25830
C3675       C  0.06305933  0.40971164  0.61128928    -0.15070
C3676       C  0.04935388  0.41019093  0.60811018     0.37260
N3677       N  0.04450553  0.41089210  0.59467364    -0.89320
H3678       H  0.02959015  0.41153986  0.61588752     0.18370
H3679       H  0.07741136  0.40985163  0.62718034     0.18360
N3680       N  0.06234703  0.41190738  0.64839432    -0.88350
H3681       H  0.03992355  0.40182555  0.59251336     0.35740
H3682       H  0.05206672  0.41234977  0.58776971     0.40840
H3683       H  0.05458895  0.41223115  0.65523960     0.40460
H3684       H  0.06757910  0.42082684  0.64936689     0.35350
C3685       C  0.86967943  0.35470673  0.80451651    -0.26380
C3686       C  0.87455826  0.34176978  0.80226606    -0.14460
C3687       C  0.86973956  0.33131295  0.81048641     0.36170
C3688       C  0.85968671  0.33379798  0.81964783    -0.25830
C3689       C  0.85462504  0.34664253  0.82184464    -0.15070
C3690       C  0.86007878  0.35732911  0.81440173     0.37260
N3691       N  0.85615407  0.37082971  0.81704376    -0.89320
H3692       H  0.87341710  0.36288729  0.79859004     0.18370
H3693       H  0.85575581  0.32533952  0.82502412     0.18360
N3694       N  0.87513524  0.31811326  0.81043908    -0.88350
H3695       H  0.86108355  0.37745298  0.81072906     0.35740
H3696       H  0.85915527  0.37310576  0.82672502     0.40840
H3697       H  0.88548477  0.31848184  0.81022845     0.40460
H3698       H  0.87125806  0.31278787  0.80245376     0.35350
C3699       C  0.96349903  0.36468413  0.71948219    -0.26380
C3700       C  0.95176655  0.36954531  0.72528424    -0.14460
C3701       C  0.94804918  0.38290417  0.72290962     0.36170
C3702       C  0.95617708  0.39103475  0.71496558    -0.25830
C3703       C  0.96792039  0.38617562  0.70917004    -0.15070
C3704       C  0.97163263  0.37281001  0.71155131     0.37260
N3705       N  0.98377904  0.36755960  0.70623677    -0.89320
H3706       H  0.96656121  0.35451848  0.72137676     0.18370
H3707       H  0.95310580  0.40119561  0.71306779     0.18360
N3708       N  0.93590516  0.38813411  0.72824873    -0.88350
H3709       H  0.98490567  0.35750439  0.70872074     0.35740
H3710       H  0.99159366  0.37261950  0.71079895     0.40840
H3711       H  0.92808910  0.38305011  0.72371570     0.40460
H3712       H  0.93475473  0.39818225  0.72574696     0.35350
C3713       C  0.72404421  0.43851795  0.74067847    -0.26380
C3714       C  0.73427086  0.44135453  0.73165764    -0.14460
C3715       C  0.74708770  0.44419863  0.73652471     0.36170
C3716       C  0.74934431  0.44405459  0.75029518    -0.25830
C3717       C  0.73914936  0.44101197  0.75924727    -0.15070
C3718       C  0.72630943  0.43816460  0.75437848     0.37260
N3719       N  0.71553170  0.43412268  0.76281316    -0.89320
H3720       H  0.71419000  0.43626632  0.73704710     0.18370
H3721       H  0.75918601  0.44611125  0.75408888     0.18360
N3722       N  0.75785935  0.44675563  0.72753770    -0.88350
H3723       H  0.70841963  0.44170622  0.76264475     0.35740
H3724       H  0.71843614  0.43275845  0.77266357     0.40840
H3725       H  0.75962847  0.43800811  0.72220233     0.40460
H3726       H  0.76656445  0.44881881  0.73278132     0.35350
C3727       C  0.68463914  0.37810130  0.64957380    -0.26380
C3728       C  0.68040911  0.39074237  0.65364151    -0.14460
C3729       C  0.66679675  0.39293141  0.65620131     0.36170
C3730       C  0.65778734  0.38251539  0.65430962    -0.25830
C3731       C  0.66194502  0.36970394  0.65044410    -0.15070
C3732       C  0.67568753  0.36753674  0.64815415     0.37260
N3733       N  0.68108998  0.35463199  0.64538736    -0.89320
H3734       H  0.69511874  0.37625925  0.64804867     0.18370
H3735       H  0.64736688  0.38446225  0.65607189     0.18360
N3736       N  0.66169548  0.40553924  0.66066709    -0.88350
H3737       H  0.67858151  0.35178476  0.63575614     0.35740
H3738       H  0.67734346  0.34777156  0.65224519     0.40840
H3739       H  0.66903187  0.41282082  0.66112583     0.40460
H3740       H  0.65811201  0.40420426  0.67033223     0.35350
C3741       C  0.86380249  0.55588425  0.58669201    -0.26380
C3742       C  0.85066205  0.56044162  0.58660007    -0.14460
C3743       C  0.84811231  0.57428871  0.58692643     0.36170
C3744       C  0.85876776  0.58318943  0.58734784    -0.25830
C3745       C  0.87195904  0.57870074  0.58720515    -0.15070
C3746       C  0.87449500  0.56479721  0.58679991     0.37260
N3747       N  0.88762321  0.55933942  0.58560585    -0.89320
H3748       H  0.86578194  0.54529445  0.58597439     0.18370
H3749       H  0.85670716  0.59378126  0.58774500     0.18360
N3750       N  0.83490198  0.57970057  0.58684072    -0.88350
H3751       H  0.88989535  0.55451332  0.59454441     0.35740
H3752       H  0.89475087  0.56667077  0.58402767     0.40840
H3753       H  0.82770211  0.57226403  0.58704766     0.40460
H3754       H  0.83366410  0.58492595  0.57791997     0.35350
C3755       C  0.76029737  0.48213292  0.60888162    -0.26380
C3756       C  0.77363120  0.48378913  0.61259000    -0.14460
C3757       C  0.77812264  0.47796575  0.62463854     0.36170
C3758       C  0.76906977  0.47111459  0.63270803    -0.25830
C3759       C  0.75576251  0.46939158  0.62895842    -0.15070
C3760       C  0.75125609  0.47524577  0.61693916     0.37260
N3761       N  0.73761830  0.47489859  0.61274864    -0.89320
H3762       H  0.75671420  0.48660814  0.59973815     0.18370
H3763       H  0.77264786  0.46663895  0.64185379     0.18360
N3764       N  0.79176264  0.47825197  0.62883225    -0.88350
H3765       H  0.73439163  0.48475022  0.61171425     0.35740
H3766       H  0.73150141  0.47079392  0.62000216     0.40840
H3767       H  0.79792606  0.48215276  0.62151231     0.40460
H3768       H  0.79490130  0.46838838  0.63001672     0.35350
C3769       C  0.97896919  0.67905699  0.49751407    -0.26380
C3770       C  0.97214892  0.69117337  0.49610886    -0.14460
C3771       C  0.97926414  0.70271261  0.49237260     0.36170
C3772       C  0.99288807  0.70181049  0.49000860    -0.25830
C3773       C  0.99960153  0.68963523  0.49119826    -0.15070
C3774       C  0.99260913  0.67813742  0.49529944     0.37260
N3775       N  0.99895464  0.66549359  0.49766687    -0.89320
H3776       H  0.97366866  0.67017277  0.50052401     0.18370
H3777       H  0.99826353  0.71067137  0.48705398     0.18360
N3778       N  0.97310424  0.71553204  0.49133280    -0.88350
H3779       H  0.99729819  0.66294330  0.50761486     0.35740
H3780       H  0.00921252  0.66605366  0.49666312     0.40840
H3781       H  0.96815197  0.71757623  0.50022602     0.40460
H3782       H  0.96629391  0.71538377  0.48353032     0.35350
C3783       C  0.90439254  0.63020939  0.54996359    -0.26380
C3784       C  0.89558104  0.64106115  0.55044842    -0.14460
C3785       C  0.88536723  0.64106069  0.56016185     0.36170
C3786       C  0.88425337  0.63016711  0.56889185    -0.25830
C3787       C  0.89333235  0.61958175  0.56857830    -0.15070
C3788       C  0.90343381  0.61950824  0.55884334     0.37260
N3789       N  0.91295194  0.60887082  0.55770255    -0.89320
H3790       H  0.91223249  0.63005837  0.54259972     0.18370
H3791       H  0.87656543  0.63025694  0.57641587     0.18360
N3792       N  0.87638141  0.65205119  0.56198258    -0.88350
H3793       H  0.91172559  0.60456304  0.54832867     0.35740
H3794       H  0.91126144  0.60129700  0.56460436     0.40840
H3795       H  0.87869693  0.66007387  0.55585370     0.40460
H3796       H  0.87764539  0.65554556  0.57168708     0.35350
C3797       C  0.84951727  0.73324625  0.47180846    -0.26380
C3798       C  0.85223799  0.73465449  0.45817548    -0.14460
C3799       C  0.86361660  0.72832196  0.45283693     0.36170
C3800       C  0.87207155  0.72122473  0.46136811    -0.25830
C3801       C  0.86932196  0.71976296  0.47498640    -0.15070
C3802       C  0.85798030  0.72614391  0.48034033     0.37260
N3803       N  0.85492822  0.72614069  0.49432178    -0.89320
H3804       H  0.84089698  0.73812630  0.47601456     0.18370
H3805       H  0.88068764  0.71634499  0.45715309     0.18360
N3806       N  0.86671060  0.72833999  0.43886296    -0.88350
H3807       H  0.85442675  0.73606890  0.49739932     0.35740
H3808       H  0.86254912  0.72197242  0.49994661     0.40840
H3809       H  0.85907238  0.73242090  0.43320300     0.40460
H3810       H  0.86730878  0.71841451  0.43579376     0.35350
C3811       C  0.83080320  0.81758245  0.35819726    -0.26380
C3812       C  0.83053962  0.83120288  0.36141397    -0.14460
C3813       C  0.82938086  0.83496901  0.37496599     0.36170
C3814       C  0.82753580  0.82508441  0.38466097    -0.25830
C3815       C  0.82752838  0.81154559  0.38135470    -0.15070
C3816       C  0.82936401  0.80771316  0.36796440     0.37260
N3817       N  0.82955667  0.79400435  0.36384526    -0.89320
H3818       H  0.83174662  0.81455779  0.34790054     0.18370
H3819       H  0.82615216  0.82801659  0.39493696     0.18360
N3820       N  0.83017205  0.84859075  0.37931853    -0.88350
H3821       H  0.82133709  0.79246979  0.35770715     0.35740
H3822       H  0.82859359  0.78748632  0.37187540     0.40840
H3823       H  0.83306124  0.85491118  0.37161980     0.40460
H3824       H  0.83784197  0.84916304  0.38628888     0.35350
C3825       C  0.74848114  0.94302845  0.25050457    -0.26380
C3826       C  0.73752880  0.94185916  0.25901151    -0.14460
C3827       C  0.72464533  0.94064098  0.25348926     0.36170
C3828       C  0.72318624  0.94076499  0.23963578    -0.25830
C3829       C  0.73418981  0.94168107  0.23117866    -0.15070
C3830       C  0.74698075  0.94290629  0.23672171     0.37260
N3831       N  0.75868815  0.94330680  0.22868769    -0.89320
H3832       H  0.75837913  0.94380162  0.25463064     0.18370
H3833       H  0.71336310  0.93963007  0.23541819     0.18360
N3834       N  0.71293718  0.93860155  0.26140011    -0.88350
H3835       H  0.75847584  0.95192173  0.22287119     0.35740
H3836       H  0.75879697  0.93496652  0.22248620     0.40840
H3837       H  0.71513152  0.93750278  0.27145177     0.40460
H3838       H  0.70877021  0.92952820  0.25852290     0.35350
C3839       C  0.80445931  0.89406973  0.33612084    -0.26380
C3840       C  0.79102636  0.89061733  0.33643633    -0.14460
C3841       C  0.78739478  0.87709877  0.33797962     0.36170
C3842       C  0.79735551  0.86735154  0.33870154    -0.25830
C3843       C  0.81083448  0.87075219  0.33797799    -0.15070
C3844       C  0.81437329  0.88436118  0.33700889     0.37260
N3845       N  0.82789092  0.88869710  0.33735476    -0.89320
H3846       H  0.80727120  0.90442407  0.33498704     0.18370
H3847       H  0.79452697  0.85698243  0.33960173     0.18360
N3848       N  0.77380312  0.87283409  0.33843016    -0.88350
H3849       H  0.83283282  0.88528513  0.32891832     0.35740
H3850       H  0.83243450  0.88471055  0.34582355     0.40840
H3851       H  0.76723425  0.88084125  0.33774024     0.40460
H3852       H  0.77220705  0.86847036  0.34773986     0.35350
C3853       C  0.70238303  0.97105550  0.35824481    -0.26380
C3854       C  0.71550482  0.96848740  0.36219315    -0.14460
C3855       C  0.72013301  0.97399346  0.37426301     0.36170
C3856       C  0.71158559  0.98172388  0.38204565    -0.25830
C3857       C  0.69844852  0.98425369  0.37810851    -0.15070
C3858       C  0.69385146  0.97880696  0.36599986     0.37260
N3859       N  0.68048529  0.98049246  0.36150406    -0.89320
H3860       H  0.69864971  0.96690225  0.34904095     0.18370
H3861       H  0.71529753  0.98586487  0.39126385     0.18360
N3862       N  0.73352978  0.97236758  0.37868706    -0.88350
H3863       H  0.67887807  0.99051910  0.35929780     0.35740
H3864       H  0.67403416  0.97749627  0.36906330     0.40840
H3865       H  0.73991634  0.97539782  0.37108537     0.40460
H3866       H  0.73520108  0.96234145  0.38084681     0.35350
C3867       C  0.59859486  0.06671698  0.39979838    -0.26380
C3868       C  0.60177504  0.08032418  0.40049810    -0.14460
C3869       C  0.61524321  0.08407790  0.40202723     0.36170
C3870       C  0.62487488  0.07417294  0.40386320    -0.25830
C3871       C  0.62163008  0.06063249  0.40343078    -0.15070
C3872       C  0.60832826  0.05681900  0.40119622     0.37260
N3873       N  0.60423863  0.04311549  0.40066284    -0.89320
H3874       H  0.58835391  0.06371822  0.39857961     0.18370
H3875       H  0.63508180  0.07709523  0.40551161     0.18360
N3876       N  0.61957792  0.09772356  0.40161681    -0.88350
H3877       H  0.59787571  0.04141897  0.40868779     0.35740
H3878       H  0.61220479  0.03658320  0.40182325     0.40840
H3879       H  0.61197097  0.10411335  0.39865422     0.40460
H3880       H  0.62669483  0.09849639  0.39410379     0.35350
C3881       C  0.41077755  0.24629232  0.23845311    -0.26380
C3882       C  0.42221471  0.23897908  0.24169029    -0.14460
C3883       C  0.43345493  0.24585349  0.24656707     0.36170
C3884       C  0.43286858  0.25967216  0.24824816    -0.25830
C3885       C  0.42132448  0.26684840  0.24521242    -0.15070
C3886       C  0.41026952  0.26011424  0.23979676     0.37260
N3887       N  0.39852112  0.26689557  0.23521966    -0.89320
H3888       H  0.40210346  0.24126089  0.23460486     0.18370
H3889       H  0.44140855  0.26481227  0.25227176     0.18360
N3890       N  0.44567261  0.23925268  0.24962464    -0.88350
H3891       H  0.39714529  0.26436948  0.22523150     0.35740
H3892       H  0.39973969  0.27719388  0.23515616     0.40840
H3893       H  0.44858245  0.23356624  0.24143391     0.40460
H3894       H  0.44425227  0.23307947  0.25784925     0.35350
C3895       C  0.37459456  0.15876744  0.17645224    -0.26380
C3896       C  0.37093541  0.16150802  0.18959695    -0.14460
C3897       C  0.35735614  0.16287284  0.19284967     0.36170
C3898       C  0.34782084  0.16163053  0.18277555    -0.25830
C3899       C  0.35149200  0.15916105  0.16954430    -0.15070
C3900       C  0.36507904  0.15752328  0.16638114     0.37260
N3901       N  0.36960935  0.15434835  0.15320557    -0.89320
H3902       H  0.38499763  0.15778399  0.17394191     0.18370
H3903       H  0.33743730  0.16286528  0.18525510     0.18360
N3904       N  0.35288602  0.16579291  0.20611188    -0.88350
H3905       H  0.37485846  0.16256623  0.14961445     0.35740
H3906       H  0.36179921  0.15262934  0.14664145     0.40840
H3907       H  0.36075920  0.16643681  0.21280702     0.40460
H3908       H  0.34706652  0.15779362  0.20928274     0.35350
C3909       C  0.49594073  0.99310955  0.30674961    -0.26380
C3910       C  0.48261322  0.98919715  0.30627976    -0.14460
C3911       C  0.47255910  0.99906389  0.30567803     0.36170
C3912       C  0.47610635  0.01249096  0.30666188    -0.25830
C3913       C  0.48939864  0.01635810  0.30778591    -0.15070
C3914       C  0.49943960  0.00652779  0.30748196     0.37260
N3915       N  0.51324452  0.00982000  0.30753160    -0.89320
H3916       H  0.50372425  0.98565508  0.30696332     0.18370
H3917       H  0.46835945  0.01998699  0.30655040     0.18360
N3918       N  0.45876338  0.99594074  0.30383286    -0.88350
H3919       H  0.51566408  0.01420933  0.31659585     0.35740
H3920       H  0.51507369  0.01658558  0.29983593     0.40840
H3921       H  0.45739746  0.98589488  0.30167198     0.40460
H3922       H  0.45553516  0.00098472  0.29531320     0.35350
C3923       C  0.53971185  0.08840098  0.37173738    -0.26380
C3924       C  0.54134260  0.09508605  0.35955763    -0.14460
C3925       C  0.55250951  0.10347977  0.35779370     0.36170
C3926       C  0.56155550  0.10496718  0.36830045    -0.25830
C3927       C  0.56001267  0.09800760  0.38029267    -0.15070
C3928       C  0.54886301  0.08971463  0.38210173     0.37260
N3929       N  0.54663534  0.08224052  0.39411951    -0.89320
H3930       H  0.53127313  0.08189059  0.37317076     0.18370
H3931       H  0.57017462  0.11124086  0.36690324     0.18360
N3932       N  0.55541478  0.11014043  0.34545604    -0.88350
H3933       H  0.53782352  0.08571611  0.39834739     0.35740
H3934       H  0.55406240  0.08381712  0.40115726     0.40840
H3935       H  0.54868970  0.10769496  0.33801032     0.40460
H3936       H  0.56460056  0.10664310  0.34213564     0.35350
C3937       C  0.46203497  0.11518872  0.26797256    -0.26380
C3938       C  0.46581693  0.11914659  0.28083167    -0.14460
C3939       C  0.46124304  0.13147019  0.28577067     0.36170
C3940       C  0.45319208  0.13957447  0.27770098    -0.25830
C3941       C  0.44941470  0.13563845  0.26483655    -0.15070
C3942       C  0.45398549  0.12331134  0.25988971     0.37260
N3943       N  0.45076119  0.11919798  0.24659962    -0.89320
H3944       H  0.46560647  0.10580275  0.26406917     0.18370
H3945       H  0.44959730  0.14893111  0.28164662     0.18360
N3946       N  0.46443958  0.13558981  0.29906725    -0.88350
H3947       H  0.45478920  0.10981831  0.24457349     0.35740
H3948       H  0.45528293  0.12588292  0.24004508     0.40840
H3949       H  0.45989258  0.12891601  0.30561541     0.40460
H3950       H  0.46042707  0.14497799  0.30108416     0.35350
C3951       C  0.64463089  0.32337050  0.60430910    -0.26380
C3952       C  0.64323259  0.30995996  0.60791262    -0.14460
C3953       C  0.64013411  0.30666945  0.62122340     0.36170
C3954       C  0.63915483  0.31686861  0.63067051    -0.25830
C3955       C  0.64082829  0.33035693  0.62719109    -0.15070
C3956       C  0.64308295  0.33361194  0.61363094     0.37260
N3957       N  0.64329478  0.34707990  0.60879031    -0.89320
H3958       H  0.64682037  0.32592646  0.59406411     0.18370
H3959       H  0.63746665  0.31413256  0.64095995     0.18360
N3960       N  0.63851055  0.29314954  0.62568488    -0.88350
H3961       H  0.65312431  0.34955663  0.60665565     0.35740
H3962       H  0.63960589  0.35379298  0.61577562     0.40840
H3963       H  0.63968048  0.28633288  0.61796675     0.40460
H3964       H  0.62876425  0.29214502  0.62905757     0.35350
C3965       C  0.49426877  0.19291540  0.50602944    -0.26380
C3966       C  0.49853028  0.19175184  0.49281141    -0.14460
C3967       C  0.48907945  0.19141438  0.48246393     0.36170
C3968       C  0.47555209  0.19161085  0.48563185    -0.25830
C3969       C  0.47130600  0.19215885  0.49888222    -0.15070
C3970       C  0.48078154  0.19315389  0.50921444     0.37260
N3971       N  0.47717039  0.19477415  0.52294473    -0.89320
H3972       H  0.50147363  0.19338435  0.51400914     0.18370
H3973       H  0.46826831  0.19095505  0.47773514     0.18360
N3974       N  0.49322980  0.19089700  0.46880182    -0.88350
H3975       H  0.47974647  0.18601982  0.52797261     0.35740
H3976       H  0.46701198  0.19624379  0.52416179     0.40840
H3977       H  0.49822617  0.19976434  0.46670359     0.40460
H3978       H  0.48502957  0.19059074  0.46244961     0.35350
C3979       C  0.58329256  0.14137837  0.42965998    -0.26380
C3980       C  0.57603343  0.13847150  0.44118859    -0.14460
C3981       C  0.57053873  0.12558088  0.44283596     0.36170
C3982       C  0.57183528  0.11625886  0.43258116    -0.25830
C3983       C  0.57870686  0.11932683  0.42089122    -0.15070
C3984       C  0.58465971  0.13199470  0.41944192     0.37260
N3985       N  0.59202227  0.13573362  0.40777720    -0.89320
H3986       H  0.58750613  0.15121388  0.42834846     0.18370
H3987       H  0.56744002  0.10648464  0.43375839     0.18360
N3988       N  0.56368933  0.12153971  0.45472730    -0.88350
H3989       H  0.58688215  0.14350549  0.40312556     0.35740
H3990       H  0.59259767  0.12799108  0.40090117     0.40840
H3991       H  0.56422968  0.12878177  0.46211477     0.40460
H3992       H  0.56870182  0.11327478  0.45861000     0.35350
C3993       C  0.60876508  0.22667825  0.53679087    -0.26380
C3994       C  0.61783473  0.23473650  0.52997750    -0.14460
C3995       C  0.61857999  0.23393608  0.51591204     0.36170
C3996       C  0.61055628  0.22477830  0.50917596    -0.25830
C3997       C  0.60148366  0.21672520  0.51599264    -0.15070
C3998       C  0.60075133  0.21751432  0.53005685     0.37260
N3999       N  0.59239492  0.20894938  0.53789257    -0.89320
H4000       H  0.60829412  0.22709293  0.54755206     0.18370
H4001       H  0.61103071  0.22435355  0.49841523     0.18360
N4002       N  0.62696638  0.24247440  0.50807967    -0.88350
H4003       H  0.59850924  0.20369923  0.54447856     0.35740
H4004       H  0.58786138  0.20167357  0.53210095     0.40840
H4005       H  0.63150777  0.24974410  0.51387291     0.40460
H4006       H  0.62087348  0.24773230  0.50148000     0.35350
C4007       C  0.22600948  0.06278967  0.23533664    -0.26380
C4008       C  0.23861390  0.06695193  0.23117588    -0.14460
C4009       C  0.24843661  0.06969276  0.24079316     0.36170
C4010       C  0.24519742  0.06887710  0.25432852    -0.25830
C4011       C  0.23244536  0.06521281  0.25845540    -0.15070
C4012       C  0.22282976  0.06174723  0.24882455     0.37260
N4013       N  0.20995758  0.05669951  0.25226328    -0.89320
H4014       H  0.21846639  0.06042047  0.22805130     0.18370
H4015       H  0.25260019  0.07140221  0.26171126     0.18360
N4016       N  0.26166765  0.07318423  0.23683213    -0.88350
H4017       H  0.20297256  0.06404125  0.24991603     0.35740
H4018       H  0.20913913  0.05456508  0.26237915     0.40840
H4019       H  0.26575566  0.06493765  0.23199681     0.40460
H4020       H  0.26762043  0.07499460  0.24514478     0.35350
C4021       C  0.30461252  0.11342355  0.15133396    -0.26380
C4022       C  0.29127409  0.11730568  0.15186892    -0.14460
C4023       C  0.28797060  0.13099043  0.15120748     0.36170
C4024       C  0.29814389  0.14044249  0.15053801    -0.25830
C4025       C  0.31154316  0.13662108  0.15045924    -0.15070
C4026       C  0.31475888  0.12288953  0.15058392     0.37260
N4027       N  0.32815553  0.11823319  0.14962899    -0.89320
H4028       H  0.30717903  0.10294750  0.15186901     0.18370
H4029       H  0.29554958  0.15092204  0.15028455     0.18360
N4030       N  0.27448968  0.13568533  0.15145249    -0.88350
H4031       H  0.33342888  0.12124817  0.15801648     0.35740
H4032       H  0.33249261  0.12245445  0.14118083     0.40840
H4033       H  0.26773178  0.12784383  0.15174315     0.40460
H4034       H  0.27274290  0.14071526  0.14250396     0.35350
C4035       C  0.21183584  0.04404869  0.11686079    -0.26380
C4036       C  0.21582317  0.03850223  0.12903470    -0.14460
C4037       C  0.21126043  0.02565519  0.13258011     0.36170
C4038       C  0.20260586  0.01883738  0.12402154    -0.25830
C4039       C  0.19862578  0.02438962  0.11185215    -0.15070
C4040       C  0.20320784  0.03721909  0.10829218     0.37260
N4041       N  0.19883804  0.04344517  0.09616727    -0.89320
H4042       H  0.21515811  0.05394273  0.11417196     0.18370
H4043       H  0.19926745  0.00894423  0.12669885     0.18360
N4044       N  0.21567998  0.01939396  0.14466745    -0.88350
H4045       H  0.20318766  0.05281489  0.09500036     0.35740
H4046       H  0.18862790  0.04503995  0.09696780     0.40840
H4047       H  0.22588799  0.01780899  0.14382109     0.40460
H4048       H  0.21134252  0.01001666  0.14581968     0.35350
C4049       C  0.47991291  0.30579917  0.98757043    -0.26380
C4050       C  0.47191525  0.31610479  0.99239775    -0.14460
C4051       C  0.47759371  0.32641138  0.00001427     0.36170
C4052       C  0.49125130  0.32635873  0.00223997    -0.25830
C4053       C  0.49944628  0.31619667  0.99722805    -0.15070
C4054       C  0.49363091  0.30563889  0.98999142     0.37260
N4055       N  0.50154814  0.29472782  0.98526399    -0.89320
H4056       H  0.47542582  0.29789760  0.98179862     0.18370
H4057       H  0.49544994  0.33452432  0.00782907     0.18360
N4058       N  0.46986763  0.33696594  0.00581297    -0.88350
H4059       H  0.49573832  0.28794155  0.97998282     0.35740
H4060       H  0.50518851  0.28964041  0.99358507     0.40840
H4061       H  0.45973412  0.33574539  0.00419099     0.40460
H4062       H  0.47262674  0.34586726  0.00118243     0.35350
C4063       C  0.33631748  0.19225626  0.11112420    -0.26380
C4064       C  0.32347596  0.19747884  0.10912570    -0.14460
C4065       C  0.31322543  0.19313695  0.11787022     0.36170
C4066       C  0.31594476  0.18371776  0.12772161    -0.25830
C4067       C  0.32856818  0.17816797  0.12930274    -0.15070
C4068       C  0.33896013  0.18263833  0.12105637     0.37260
N4069       N  0.35207258  0.17723180  0.12259938    -0.89320
H4070       H  0.34432035  0.19540954  0.10469882     0.18370
H4071       H  0.30795766  0.18057755  0.13421432     0.18360
N4072       N  0.29993512  0.19809845  0.11739793    -0.88350
H4073       H  0.35860145  0.18160878  0.11581776     0.35740
H4074       H  0.35165133  0.16710489  0.12025633     0.40840
H4075       H  0.29500982  0.19390282  0.10931108     0.40460
H4076       H  0.29998961  0.20849653  0.11701092     0.35350
C4077       C  0.35937746  0.28358671  0.00976470    -0.26380
C4078       C  0.37002387  0.28981889  0.01616231    -0.14460
C4079       C  0.37181083  0.28780729  0.02999895     0.36170
C4080       C  0.36302500  0.27963823  0.03702789    -0.25830
C4081       C  0.35233316  0.27345957  0.03065286    -0.15070
C4082       C  0.35059704  0.27540187  0.01678774     0.37260
N4083       N  0.34041160  0.26877068  0.00942695    -0.89320
H4084       H  0.35799943  0.28490452  0.99915166     0.18370
H4085       H  0.36439671  0.27835295  0.04764494     0.18360
N4086       N  0.38205559  0.29437710  0.03732728    -0.88350
H4087       H  0.33117741  0.27227140  0.01249545     0.35740
H4088       H  0.34104546  0.25854885  0.01132213     0.40840
H4089       H  0.38137902  0.30461703  0.03554781     0.40460
H4090       H  0.39125720  0.29093675  0.03408683     0.35350
C4091       C  0.97531331  0.99303161  0.18251232    -0.26380
C4092       C  0.98853882  0.98913987  0.18442980    -0.14460
C4093       C  0.99839193  0.99902856  0.18616678     0.36170
C4094       C  0.99486062  0.01246435  0.18490705    -0.25830
C4095       C  0.98173541  0.01631929  0.18237606    -0.15070
C4096       C  0.97180739  0.00645353  0.18148254     0.37260
N4097       N  0.95806645  0.00970881  0.17990736    -0.89320
H4098       H  0.96765902  0.98556004  0.18140218     0.18370
H4099       H  0.00248692  0.01997884  0.18592626     0.18360
N4100       N  0.01193901  0.99591785  0.18945522    -0.88350
H4101       H  0.95663974  0.01420705  0.17066073     0.35740
H4102       H  0.95533278  0.01637137  0.18739735     0.40840
H4103       H  0.01316528  0.98584048  0.19162844     0.40460
H4104       H  0.01419154  0.00083276  0.19832678     0.35350
C4105       C  0.90965414  0.76090233  0.24499911    -0.26380
C4106       C  0.92185407  0.76697817  0.24771567    -0.14460
C4107       C  0.93361431  0.75925687  0.24739693     0.36170
C4108       C  0.93281598  0.74573145  0.24414678    -0.25830
C4109       C  0.92061081  0.73970512  0.24132190    -0.15070
C4110       C  0.90887101  0.74734046  0.24189659     0.37260
N4111       N  0.89617428  0.74126232  0.23967685    -0.89320
H4112       H  0.90064704  0.76679442  0.24532924     0.18370
H4113       H  0.94183433  0.73985408  0.24389816     0.18360
N4114       N  0.94638858  0.76449787  0.25090836    -0.88350
H4115       H  0.88856722  0.74831306  0.24037309     0.35740
H4116       H  0.89461173  0.73438605  0.24733631     0.40840
H4117       H  0.94581499  0.77417027  0.25458947     0.40460
H4118       H  0.95215395  0.76475455  0.24227978     0.35350
C4119       C  0.85907127  0.83900272  0.29835894    -0.26380
C4120       C  0.87136234  0.84519862  0.30048150    -0.14460
C4121       C  0.87325830  0.85287805  0.31214512     0.36170
C4122       C  0.86276980  0.85418657  0.32120412    -0.25830
C4123       C  0.85061181  0.84779372  0.31913301    -0.15070
C4124       C  0.84867438  0.84019328  0.30748934     0.37260
N4125       N  0.83650851  0.83327515  0.30474498    -0.89320
H4126       H  0.85758304  0.83298200  0.28954984     0.18370
H4127       H  0.86425535  0.85995508  0.33018001     0.18360
N4128       N  0.88569246  0.85901116  0.31548174    -0.88350
H4129       H  0.83243826  0.83742469  0.29611249     0.35740
H4130       H  0.82952020  0.83461159  0.31226587     0.40840
H4131       H  0.89303706  0.85690867  0.30853014     0.40460
H4132       H  0.88895549  0.85480061  0.32442621     0.35350
C4133       C  0.94514242  0.87360676  0.21334357    -0.26380
C4134       C  0.95013115  0.86983933  0.22580555    -0.14460
C4135       C  0.96291299  0.87408303  0.22971666     0.36170
C4136       C  0.97035707  0.88200600  0.22100399    -0.25830
C4137       C  0.96536334  0.88577394  0.20853899    -0.15070
C4138       C  0.95258065  0.88152944  0.20463519     0.37260
N4139       N  0.94678052  0.88512138  0.19205138    -0.89320
H4140       H  0.93539700  0.87025650  0.21030068     0.18370
H4141       H  0.98009196  0.88537848  0.22405530     0.18360
N4142       N  0.96868981  0.87051381  0.24231761    -0.88350
H4143       H  0.94530230  0.87633843  0.18669484     0.35740
H4144       H  0.95312522  0.89100052  0.18634779     0.40840
H4145       H  0.96233603  0.86463076  0.24800810     0.40460
H4146       H  0.97014445  0.87930459  0.24766826     0.35350
C4147       C  0.39140505  0.39105559  0.93324442    -0.26380
C4148       C  0.39168839  0.38760618  0.91970351    -0.14460
C4149       C  0.39271749  0.37395825  0.91617448     0.36170
C4150       C  0.39427357  0.36436752  0.92621877    -0.25830
C4151       C  0.39418550  0.36787260  0.93968972    -0.15070
C4152       C  0.39262261  0.38139481  0.94327551     0.37260
N4153       N  0.39247257  0.38574294  0.95689356    -0.89320
H4154       H  0.39054791  0.40143128  0.93607152     0.18370
H4155       H  0.39552817  0.35400988  0.92346082     0.18360
N4156       N  0.39207283  0.36938992  0.90262996    -0.88350
H4157       H  0.40081726  0.39171018  0.95838079     0.35740
H4158       H  0.39324693  0.37778046  0.96353035     0.40840
H4159       H  0.38960288  0.37705866  0.89608039     0.40460
H4160       H  0.38421504  0.36265198  0.90199124     0.35350
C4161       C  0.55106180  0.24978029  0.75671636    -0.26380
C4162       C  0.54690280  0.24091698  0.74674705    -0.14460
C4163       C  0.54315837  0.24618454  0.73418658     0.36170
C4164       C  0.54402400  0.25987661  0.73188849    -0.25830
C4165       C  0.54839184  0.26859941  0.74179391    -0.15070
C4166       C  0.55203603  0.26347275  0.75438949     0.37260
N4167       N  0.55757695  0.27157388  0.76476326    -0.89320
H4168       H  0.55398597  0.24601904  0.76638969     0.18370
H4169       H  0.54122682  0.26376603  0.72221505     0.18360
N4170       N  0.53883133  0.23802730  0.72338599    -0.88350
H4171       H  0.55064879  0.27207009  0.77246882     0.35740
H4172       H  0.55951001  0.28126933  0.76162288     0.40840
H4173       H  0.52965194  0.23391893  0.72578810     0.40460
H4174       H  0.54582807  0.23053133  0.72170286     0.35350
C4175       C  0.60201385  0.35569403  0.68124964    -0.26380
C4176       C  0.60162935  0.34400513  0.68891666    -0.14460
C4177       C  0.61176257  0.33437887  0.68730290     0.36170
C4178       C  0.62152623  0.33629703  0.67754967    -0.25830
C4179       C  0.62161913  0.34772757  0.66954610    -0.15070
C4180       C  0.61178684  0.35764755  0.67149324     0.37260
N4181       N  0.61112193  0.36958555  0.66357917    -0.89320
H4182       H  0.59432556  0.36314611  0.68244185     0.18370
H4183       H  0.62914717  0.32880588  0.67614468     0.18360
N4184       N  0.61220987  0.32274664  0.69565488    -0.88350
H4185       H  0.60216133  0.36941906  0.65835674     0.35740
H4186       H  0.61858268  0.36992757  0.65642373     0.40840
H4187       H  0.61384812  0.32594636  0.70540263     0.40460
H4188       H  0.62023826  0.31665758  0.69313267     0.35350
C4189       C  0.49654912  0.49456676  0.80526151    -0.26380
C4190       C  0.48324645  0.49075943  0.80660935    -0.14460
C4191       C  0.47329784  0.50066155  0.80709373     0.36170
C4192       C  0.47695934  0.51413097  0.80689208    -0.25830
C4193       C  0.49030242  0.51791295  0.80603517    -0.15070
C4194       C  0.50019987  0.50797822  0.80480911     0.37260
N4195       N  0.51393338  0.51102278  0.80259608    -0.89320
H4196       H  0.50424982  0.48705911  0.80464392     0.18370
H4197       H  0.46936132  0.52172962  0.80769992     0.18360
N4198       N  0.45953480  0.49704732  0.80769009    -0.88350
H4199       H  0.51908216  0.50898201  0.81139320     0.35740
H4200       H  0.51538583  0.52101191  0.80016769     0.40840
H4201       H  0.45719950  0.49217724  0.79881821     0.40460
H4202       H  0.45352616  0.50553285  0.80809474     0.35350
C4203       C  0.42815070  0.42416518  0.86884958    -0.26380
C4204       C  0.42992720  0.41402931  0.85937733    -0.14460
C4205       C  0.42253961  0.40215482  0.86069137     0.36170
C4206       C  0.41343264  0.40086012  0.87124118    -0.25830
C4207       C  0.41139157  0.41121928  0.88038005    -0.15070
C4208       C  0.41914071  0.42291056  0.87934896     0.37260
N4209       N  0.41827006  0.43367418  0.88874934    -0.89320
H4210       H  0.43394768  0.43320625  0.86824074     0.18370
H4211       H  0.40751884  0.39190132  0.87207021     0.18360
N4212       N  0.42390498  0.39165560  0.85110908    -0.88350
H4213       H  0.42765155  0.43486936  0.89299733     0.35740
H4214       H  0.41197681  0.43142035  0.89664991     0.40840
H4215       H  0.42042510  0.39528366  0.84199758     0.40460
H4216       H  0.41787615  0.38357846  0.85361760     0.35350
C4217       C  0.51561165  0.36629050  0.77486160    -0.26380
C4218       C  0.52246855  0.37175257  0.76392835    -0.14460
C4219       C  0.52050820  0.38540363  0.76102114     0.36170
C4220       C  0.51177194  0.39299357  0.76887726    -0.25830
C4221       C  0.50499890  0.38753487  0.77985953    -0.15070
C4222       C  0.50685439  0.37386355  0.78268417     0.37260
N4223       N  0.49996201  0.36757157  0.79347214    -0.89320
H4224       H  0.51700506  0.35594518  0.77747565     0.18370
H4225       H  0.51037181  0.40336277  0.76632786     0.18360
N4226       N  0.52734536  0.39167957  0.75019140    -0.88350
H4227       H  0.50404875  0.35821898  0.79555408     0.35740
H4228       H  0.49033415  0.36572040  0.79011710     0.40840
H4229       H  0.53696651  0.39361017  0.75351961     0.40460
H4230       H  0.52318855  0.40099322  0.74807255     0.35350
C4231       C  0.34613107  0.43472412  0.90136521    -0.26380
C4232       C  0.34971966  0.44816822  0.90215674    -0.14460
C4233       C  0.36326977  0.45171141  0.90160737     0.36170
C4234       C  0.37288817  0.44163970  0.90087080    -0.25830
C4235       C  0.36935491  0.42811433  0.90057674    -0.15070
C4236       C  0.35574484  0.42468985  0.90048132     0.37260
N4237       N  0.35134646  0.41120741  0.89909123    -0.89320
H4238       H  0.33575295  0.43198042  0.90172785     0.18370
H4239       H  0.38326488  0.44441065  0.90077437     0.18360
N4240       N  0.36766343  0.46532190  0.90208450    -0.88350
H4241       H  0.35422783  0.40570134  0.90740974     0.35740
H4242       H  0.35576378  0.40712041  0.89062880     0.40840
H4243       H  0.35972253  0.47197773  0.90250954     0.40460
H4244       H  0.37260327  0.46732510  0.89316767     0.35350
C4245       C  0.24513143  0.56147599  0.75348597    -0.26380
C4246       C  0.23228610  0.56520198  0.75735088    -0.14460
C4247       C  0.22259264  0.56766903  0.74749613     0.36170
C4248       C  0.22614537  0.56690370  0.73403469    -0.25830
C4249       C  0.23910242  0.56362665  0.73022137    -0.15070
C4250       C  0.24865098  0.56056551  0.74007656     0.37260
N4251       N  0.26182836  0.55609866  0.73693853    -0.89320
H4252       H  0.25260694  0.55938211  0.76094378     0.18370
H4253       H  0.21882624  0.56916012  0.72645951     0.18360
N4254       N  0.20918165  0.57083904  0.75114052    -0.88350
H4255       H  0.26841227  0.56365611  0.73961182     0.35740
H4256       H  0.26304772  0.55426492  0.72681283     0.40840
H4257       H  0.20522621  0.56250245  0.75593894     0.40460
H4258       H  0.20336449  0.57249565  0.74268651     0.35350
C4259       C  0.18455584  0.63113836  0.83664756    -0.26380
C4260       C  0.18020049  0.61795022  0.83551848    -0.14460
C4261       C  0.16646418  0.61524734  0.83534036     0.36170
C4262       C  0.15746567  0.62580611  0.83650136    -0.25830
C4263       C  0.16174669  0.63908480  0.83743121    -0.15070
C4264       C  0.17555001  0.64176885  0.83734806     0.37260
N4265       N  0.18083066  0.65504234  0.83698886    -0.89320
H4266       H  0.19508005  0.63325680  0.83626943     0.18370
H4267       H  0.14695512  0.62359580  0.83660197     0.18360
N4268       N  0.16126132  0.60199618  0.83395476    -0.88350
H4269       H  0.18512255  0.65696806  0.84624784     0.35740
H4270       H  0.17351710  0.66218809  0.83525236     0.40840
H4271       H  0.16875708  0.59483591  0.83357378     0.40460
H4272       H  0.15621149  0.60157309  0.82488335     0.35350
C4273       C  0.25676997  0.52612402  0.85779694    -0.26380
C4274       C  0.25589999  0.53984843  0.86035432    -0.14460
C4275       C  0.26280827  0.54515659  0.87141054     0.36170
C4276       C  0.26985153  0.53650070  0.87980468    -0.25830
C4277       C  0.27071589  0.52278339  0.87724159    -0.15070
C4278       C  0.26387784  0.51748274  0.86614840     0.37260
N4279       N  0.26344592  0.50346024  0.86324631    -0.89320
H4280       H  0.25149679  0.52195490  0.84938989     0.18370
H4281       H  0.27511293  0.54065129  0.88822945     0.18360
N4282       N  0.26340072  0.55919319  0.87421921    -0.88350
H4283       H  0.25349869  0.50056487  0.86335473     0.35740
H4284       H  0.26798512  0.49779109  0.87064304     0.40840
H4285       H  0.25914434  0.56486240  0.86665790     0.40460
H4286       H  0.27339266  0.56193325  0.87427353     0.35350
C4287       C  0.97489211  0.50854913  0.68176097    -0.26380
C4288       C  0.98562935  0.51723731  0.68004034    -0.14460
C4289       C  0.99862616  0.51192612  0.67901050     0.36170
C4290       C  0.00044848  0.49815210  0.68015795    -0.25830
C4291       C  0.98969018  0.48946252  0.68168959    -0.15070
C4292       C  0.97674331  0.49478699  0.68253340     0.37260
N4293       N  0.96523111  0.48653711  0.68353485    -0.89320
H4294       H  0.96490650  0.51250101  0.68241231     0.18370
H4295       H  0.01039606  0.49414415  0.67929922     0.18360
N4296       N  0.01010194  0.51993543  0.67615671    -0.88350
H4297       H  0.96548945  0.48147089  0.69259823     0.35740
H4298       H  0.96531785  0.47967078  0.67573831     0.40840
H4299       H  0.00756490  0.52971856  0.67384742     0.40460
H4300       H  0.01441769  0.51621567  0.66746930     0.35350
C4301       C  0.93464101  0.59780817  0.61787578    -0.26380
C4302       C  0.93016850  0.59553839  0.63086440    -0.14460
C4303       C  0.91639831  0.59456129  0.63330896     0.36170
C4304       C  0.90748352  0.59610130  0.62271980    -0.25830
C4305       C  0.91190374  0.59819977  0.60963115    -0.15070
C4306       C  0.92574312  0.59894759  0.60723442     0.37260
N4307       N  0.93114860  0.59986052  0.59408887    -0.89320
H4308       H  0.94519607  0.59808984  0.61589091     0.18370
H4309       H  0.89695331  0.59543423  0.62472765     0.18360
N4310       N  0.91107644  0.59199695  0.64632872    -0.88350
H4311       H  0.92881451  0.60910547  0.58996825     0.35740
H4312       H  0.92706290  0.59232478  0.58823103     0.40840
H4313       H  0.91846698  0.59152114  0.65357326     0.40460
H4314       H  0.90652384  0.58265748  0.64608435     0.35350
C4315       C  0.03863639  0.74566595  0.74825502    -0.26380
C4316       C  0.04996409  0.73827199  0.74500752    -0.14460
C4317       C  0.06087166  0.74464677  0.73892540     0.36170
C4318       C  0.06031118  0.75834467  0.73663582    -0.25830
C4319       C  0.04910250  0.76587761  0.74010078    -0.15070
C4320       C  0.03805900  0.75944305  0.74584416     0.37260
N4321       N  0.02628356  0.76683166  0.74906806    -0.89320
H4322       H  0.03029753  0.74068755  0.75287161     0.18370
H4323       H  0.06882653  0.76313276  0.73216176     0.18360
N4324       N  0.07249056  0.73757623  0.73456334    -0.88350
H4325       H  0.01915729  0.76060387  0.75333072     0.35740
H4326       H  0.02224794  0.77036898  0.74015411     0.40840
H4327       H  0.07148851  0.72728571  0.73548943     0.40460
H4328       H  0.08039355  0.74048629  0.74061331     0.35350
C4329       C  0.11174654  0.66967077  0.79994359    -0.26380
C4330       C  0.10019590  0.66194201  0.80103249    -0.14460
C4331       C  0.09880685  0.65323570  0.81209127     0.36170
C4332       C  0.10908446  0.65243086  0.82150529    -0.25830
C4333       C  0.12044035  0.66038165  0.82045913    -0.15070
C4334       C  0.12184553  0.66904191  0.80945810     0.37260
N4335       N  0.13322997  0.67746487  0.80766094    -0.89320
H4336       H  0.11291221  0.67642592  0.79160227     0.18370
H4337       H  0.10803160  0.64578122  0.82994373     0.18360
N4338       N  0.08706517  0.64549520  0.81448182    -0.88350
H4339       H  0.13801565  0.67443550  0.79895727     0.35740
H4340       H  0.14009489  0.67640246  0.81535060     0.40840
H4341       H  0.07967767  0.64747808  0.80752882     0.40460
H4342       H  0.08316527  0.64848705  0.82363348     0.35350
C4343       C  0.02906956  0.62651316  0.71711277    -0.26380
C4344       C  0.02219783  0.63573564  0.72497438    -0.14460
C4345       C  0.00824227  0.63689190  0.72355974     0.36170
C4346       C  0.00171515  0.62919763  0.71396645    -0.25830
C4347       C  0.00858550  0.61997398  0.70611844    -0.15070
C4348       C  0.02252537  0.61876252  0.70757175     0.37260
N4349       N  0.03043791  0.61014781  0.69933765    -0.89320
H4350       H  0.03974917  0.62570427  0.71799818     0.18370
H4351       H  0.99103468  0.62999913  0.71307436     0.18360
N4352       N  0.00028693  0.64535265  0.73191322    -0.88350
H4353       H  0.03739070  0.61609320  0.69442759     0.35740
H4354       H  0.02483989  0.60580034  0.69180348     0.40840
H4355       H  0.00582900  0.64945652  0.73962164     0.40460
H4356       H  0.99327099  0.63932575  0.73663006     0.35350
C4357       C  0.12482762  0.93403992  0.08824317    -0.26380
C4358       C  0.12134381  0.94755438  0.08833229    -0.14460
C4359       C  0.10786682  0.95121993  0.08971166     0.36170
C4360       C  0.09820323  0.94122049  0.09040731    -0.25830
C4361       C  0.10162950  0.92765523  0.08985000    -0.15070
C4362       C  0.11519405  0.92408267  0.08913444     0.37260
N4363       N  0.11955420  0.91050134  0.08972934    -0.89320
H4364       H  0.13514983  0.93119487  0.08724853     0.18370
H4365       H  0.08786584  0.94409358  0.09110869     0.18360
N4366       N  0.10355236  0.96488015  0.08995478    -0.88350
H4367       H  0.11630403  0.90543799  0.08130221     0.35740
H4368       H  0.11547872  0.90603293  0.09818318     0.40840
H4369       H  0.11149386  0.97147663  0.08929253     0.40460
H4370       H  0.09911393  0.96657167  0.09919101     0.35350
C4371       C  0.04237154  0.92152966  0.12179904    -0.26380
C4372       C  0.04236792  0.91236321  0.13239211    -0.14460
C4373       C  0.05165885  0.90171400  0.13224971     0.36170
C4374       C  0.06039216  0.90049365  0.12143657    -0.25830
C4375       C  0.06055908  0.90989872  0.11110991    -0.15070
C4376       C  0.05128244  0.92047159  0.11120033     0.37260
N4377       N  0.05057876  0.93031886  0.10079411    -0.89320
H4378       H  0.03532040  0.92968957  0.12172543     0.18370
H4379       H  0.06756515  0.89243988  0.12140591     0.18360
N4380       N  0.05305629  0.89235972  0.14302415    -0.88350
H4381       H  0.04119399  0.92963492  0.09643944     0.35740
H4382       H  0.05736020  0.92844379  0.09320351     0.40840
H4383       H  0.04716017  0.89489321  0.15111693     0.40460
H4384       H  0.06279806  0.89301708  0.14651089     0.35350
C4385       C  0.97804869  0.82699117  0.99386455    -0.26380
C4386       C  0.97155699  0.81467454  0.99320068    -0.14460
C4387       C  0.97885717  0.80280074  0.99535860     0.36170
C4388       C  0.99235464  0.80365268  0.99842529    -0.25830
C4389       C  0.99876525  0.81598576  0.99921834    -0.15070
C4390       C  0.99157832  0.82783529  0.99665774     0.37260
N4391       N  0.99760153  0.84081956  0.99650698    -0.89320
H4392       H  0.97254609  0.83611744  0.99212579     0.18370
H4393       H  0.99793095  0.79456438  0.00012944     0.18360
N4394       N  0.97321025  0.78975486  0.99392285    -0.88350
H4395       H  0.99621874  0.84483799  0.98700307     0.35740
H4396       H  0.00782580  0.84033981  0.99786135     0.40840
H4397       H  0.96365383  0.79004966  0.99000659     0.40460
H4398       H  0.97268049  0.78544897  0.00338095     0.35350
C4399       C  0.06771511  0.88890217  0.06148230    -0.26380
C4400       C  0.07843001  0.88809855  0.07030232    -0.14460
C4401       C  0.08761153  0.87746609  0.06905096     0.36170
C4402       C  0.08547911  0.86766747  0.05934084    -0.25830
C4403       C  0.07437383  0.86811661  0.05094027    -0.15070
C4404       C  0.06562020  0.87915388  0.05181546     0.37260
N4405       N  0.05484133  0.88109786  0.04272810    -0.89320
H4406       H  0.06085144  0.89719613  0.06216308     0.18370
H4407       H  0.09230719  0.85934672  0.05870924     0.18360
N4408       N  0.09883832  0.87592184  0.07774038    -0.88350
H4409       H  0.04763692  0.87386375  0.04435238     0.35740
H4410       H  0.05842538  0.88031658  0.03300992     0.40840
H4411       H  0.09914129  0.88323646  0.08507326     0.40460
H4412       H  0.10738598  0.87703879  0.07198033     0.35350
C4413       C  0.14538445  0.68480699  0.88485721    -0.26380
C4414       C  0.14288094  0.69816892  0.88167001    -0.14460
C4415       C  0.13914279  0.70153505  0.86852692     0.36170
C4416       C  0.13875969  0.69153536  0.85879999    -0.25830
C4417       C  0.14170881  0.67814790  0.86183019    -0.15070
C4418       C  0.14463969  0.67477313  0.87524072     0.37260
N4419       N  0.14632112  0.66128365  0.87962667    -0.89320
H4420       H  0.14812470  0.68215226  0.89494938     0.18370
H4421       H  0.13638378  0.69435560  0.84866621     0.18360
N4422       N  0.13617520  0.71497451  0.86452269    -0.88350
H4423       H  0.15527663  0.65748363  0.87613983     0.35740
H4424       H  0.13846398  0.65554887  0.87604833     0.40840
H4425       H  0.13688442  0.72162078  0.87243948     0.40460
H4426       H  0.12629218  0.71520182  0.86139654     0.35350
C4427       C  0.10694140  0.76882913  0.96316854    -0.26380
C4428       C  0.11989413  0.77346813  0.96126877    -0.14460
C4429       C  0.12336503  0.78600323  0.96676121     0.36170
C4430       C  0.11390411  0.79343451  0.97375173    -0.25830
C4431       C  0.10090603  0.78882584  0.97563262    -0.15070
C4432       C  0.09748530  0.77622563  0.97017679     0.37260
N4433       N  0.08467604  0.77034776  0.97171930    -0.89320
H4434       H  0.10406904  0.75924156  0.95918513     0.18370
H4435       H  0.11680632  0.80303493  0.97766593     0.18360
N4436       N  0.13621720  0.79178260  0.96515205    -0.88350
H4437       H  0.07789313  0.77546330  0.96576480     0.35740
H4438       H  0.08190219  0.77062196  0.98172472     0.40840
H4439       H  0.13883815  0.79159249  0.95510202     0.40460
H4440       H  0.14304279  0.78640976  0.97082161     0.35350
C4441       C  0.78766783  0.50178074  0.48899802    -0.26380
C4442       C  0.79973938  0.50281299  0.48216983    -0.14460
C4443       C  0.81106650  0.50741365  0.48902585     0.36170
C4444       C  0.81018759  0.51038063  0.50251515    -0.25830
C4445       C  0.79823605  0.50903306  0.50949618    -0.15070
C4446       C  0.78668264  0.50499980  0.50254123     0.37260
N4447       N  0.77379619  0.50443197  0.50863662    -0.89320
H4448       H  0.77887324  0.49855528  0.48372558     0.18370
H4449       H  0.81906058  0.51363418  0.50763380     0.18360
N4450       N  0.82348203  0.50972384  0.48252183    -0.88350
H4451       H  0.76753569  0.51076865  0.50325010     0.35740
H4452       H  0.77390779  0.50829552  0.51823559     0.40840
H4453       H  0.82188926  0.51586502  0.47426318     0.40460
H4454       H  0.82747757  0.50066190  0.47944272     0.35350
C4455       C  0.85394270  0.44464351  0.39380621    -0.26380
C4456       C  0.84909684  0.44703205  0.40671664    -0.14460
C4457       C  0.85377332  0.43873272  0.41719955     0.36170
C4458       C  0.86356191  0.42926802  0.41474173    -0.25830
C4459       C  0.86858831  0.42695537  0.40194786    -0.15070
C4460       C  0.86338619  0.43454774  0.39124904     0.37260
N4461       N  0.86743096  0.43185871  0.37782176    -0.89320
H4462       H  0.85032798  0.45064617  0.38561143     0.18370
H4463       H  0.86734583  0.42372114  0.42317146     0.18360
N4464       N  0.84853436  0.43904394  0.43042119    -0.88350
H4465       H  0.86265659  0.43828085  0.37115967     0.35740
H4466       H  0.86432682  0.42221938  0.37548013     0.40840
H4467       H  0.83818475  0.43938875  0.43014004     0.40460
H4468       H  0.85257571  0.44705300  0.43559157     0.35350
C4469       C  0.72173462  0.56680348  0.25092784    -0.26380
C4470       C  0.73225066  0.56550156  0.25998603    -0.14460
C4471       C  0.74531941  0.56417285  0.25513957     0.36170
C4472       C  0.74751645  0.56415906  0.24136563    -0.25830
C4473       C  0.73702166  0.56567827  0.23233706    -0.15070
C4474       C  0.72392944  0.56710301  0.23720681     0.37260
N4475       N  0.71273914  0.56976147  0.22875157    -0.89320
H4476       H  0.71168457  0.56795374  0.25454578     0.18370
H4477       H  0.75753981  0.56314293  0.23762772     0.18360
N4478       N  0.75635954  0.56331306  0.26414227    -0.88350
H4479       H  0.70705948  0.56108471  0.22826751     0.35740
H4480       H  0.71553175  0.57237062  0.21912369     0.40840
H4481       H  0.75697151  0.57238344  0.26918573     0.40460
H4482       H  0.76525322  0.56221941  0.25892449     0.35350
C4483       C  0.68293683  0.62983182  0.33881578    -0.26380
C4484       C  0.67851339  0.61664355  0.33794246    -0.14460
C4485       C  0.66475602  0.61397706  0.33832559     0.36170
C4486       C  0.65580838  0.62458280  0.33968151    -0.25830
C4487       C  0.66018815  0.63782274  0.34042408    -0.15070
C4488       C  0.67396724  0.64043179  0.33994048     0.37260
N4489       N  0.67911794  0.65371553  0.33972631    -0.89320
H4490       H  0.69344384  0.63194651  0.33810716     0.18370
H4491       H  0.64528008  0.62247453  0.33993125     0.18360
N4492       N  0.65948221  0.60072905  0.33723306    -0.88350
H4493       H  0.67689833  0.65838493  0.34870949     0.35740
H4494       H  0.67458090  0.65896936  0.33196898     0.40840
H4495       H  0.66694787  0.59355372  0.33662272     0.40460
H4496       H  0.65410306  0.60025027  0.32835755     0.35350
C4497       C  0.74825213  0.53070070  0.37153148    -0.26380
C4498       C  0.75501375  0.53966267  0.36328293    -0.14460
C4499       C  0.76906088  0.53954123  0.36314144     0.36170
C4500       C  0.77591292  0.53027980  0.37103062    -0.25830
C4501       C  0.76914772  0.52129942  0.37926105    -0.15070
C4502       C  0.75510261  0.52145184  0.37943216     0.37260
N4503       N  0.74743482  0.51203104  0.38696019    -0.89320
H4504       H  0.73750964  0.53055464  0.37147381     0.18370
H4505       H  0.78665528  0.53042755  0.37109421     0.18360
N4506       N  0.77672384  0.54900992  0.35566789    -0.88350
H4507       H  0.74260715  0.51724786  0.39453005     0.35740
H4508       H  0.75334146  0.50475922  0.39143799     0.40840
H4509       H  0.77081261  0.55631333  0.35124724     0.40460
H4510       H  0.78154969  0.54384342  0.34806280     0.35350
C4511       C  0.97577417  0.31410852  0.50507367    -0.26380
C4512       C  0.97132338  0.31367976  0.49185985    -0.14460
C4513       C  0.98070435  0.31300410  0.48139092     0.36170
C4514       C  0.99419592  0.31403162  0.48439727    -0.25830
C4515       C  0.99857769  0.31526706  0.49754881    -0.15070
C4516       C  0.98927324  0.31489018  0.50802386     0.37260
N4517       N  0.99321963  0.31502212  0.52170967    -0.89320
H4518       H  0.96869313  0.31434642  0.51316967     0.18370
H4519       H  0.00132791  0.31396847  0.47633989     0.18360
N4520       N  0.97700389  0.31113611  0.46769452    -0.88350
H4521       H  0.99789899  0.32403395  0.52377884     0.35740
H4522       H  0.99993796  0.30723764  0.52329912     0.40840
H4523       H  0.96698341  0.30882845  0.46676790     0.40460
H4524       H  0.98196675  0.30266274  0.46426373     0.35350
C4525       C  0.88985506  0.37766034  0.44235550    -0.26380
C4526       C  0.89336486  0.36483384  0.43821695    -0.14460
C4527       C  0.89557577  0.36239177  0.42453524     0.36170
C4528       C  0.89398602  0.37280906  0.41536091    -0.25830
C4529       C  0.89059491  0.38573862  0.41946300    -0.15070
C4530       C  0.88866671  0.38815117  0.43324177     0.37260
N4531       N  0.88645516  0.40123896  0.43845248    -0.89320
H4532       H  0.88863418  0.37968839  0.45286900     0.18370
H4533       H  0.89557669  0.37079360  0.40489925     0.18360
N4534       N  0.89937119  0.34952523  0.41955114    -0.88350
H4535       H  0.87713552  0.40463667  0.43552022     0.35740
H4536       H  0.89375044  0.40763663  0.43477524     0.40840
H4537       H  0.89965081  0.34232814  0.42704166     0.40460
H4538       H  0.90898042  0.35034321  0.41575671     0.35350
C4539       C  0.73960202  0.24098112  0.55690999    -0.26380
C4540       C  0.74838707  0.25177611  0.55744688    -0.14460
C4541       C  0.74324808  0.26493770  0.55752631     0.36170
C4542       C  0.72952245  0.26682020  0.55667319    -0.25830
C4543       C  0.72075235  0.25601131  0.55632387    -0.15070
C4544       C  0.72591468  0.24291874  0.55642311     0.37260
N4545       N  0.71759177  0.23139122  0.55671257    -0.89320
H4546       H  0.74342098  0.23088069  0.55700939     0.18370
H4547       H  0.72563277  0.27689186  0.55681542     0.18360
N4548       N  0.75139982  0.27657487  0.55912666    -0.88350
H4549       H  0.71227999  0.23090199  0.54782724     0.35740
H4550       H  0.71100273  0.23222181  0.56468627     0.40840
H4551       H  0.76119714  0.27412004  0.56125149     0.40460
H4552       H  0.74804492  0.28163261  0.56756155     0.35350
C4553       C  0.83438251  0.18939568  0.60960772    -0.26380
C4554       C  0.82484959  0.19942461  0.61141347    -0.14460
C4555       C  0.81736220  0.19962650  0.62337617     0.36170
C4556       C  0.81895142  0.18928355  0.63263680    -0.25830
C4557       C  0.82822288  0.17909825  0.63063891    -0.15070
C4558       C  0.83616633  0.17921825  0.61903551     0.37260
N4559       N  0.84593322  0.16911841  0.61634652    -0.89320
H4560       H  0.84017462  0.18916849  0.60053794     0.18370
H4561       H  0.81303726  0.18932873  0.64163407     0.18360
N4562       N  0.80828502  0.21021123  0.62662881    -0.88350
H4563       H  0.84294583  0.16404840  0.60778928     0.35740
H4564       H  0.84646377  0.16203527  0.62393208     0.40840
H4565       H  0.80914251  0.21816881  0.62001951     0.40460
H4566       H  0.81119316  0.21410838  0.63580969     0.35350
C4567       C  0.85889714  0.28257926  0.50993225    -0.26380
C4568       C  0.86885595  0.28933563  0.51688866    -0.14460
C4569       C  0.86995212  0.28745991  0.53081317     0.36170
C4570       C  0.86118187  0.27889568  0.53737550    -0.25830
C4571       C  0.85118664  0.27217292  0.53042983    -0.15070
C4572       C  0.85014110  0.27399567  0.51648721     0.37260
N4573       N  0.84071835  0.26685382  0.50860290    -0.89320
H4574       H  0.85806185  0.28379161  0.49925090     0.18370
H4575       H  0.86202059  0.27769568  0.54805736     0.18360
N4576       N  0.87945415  0.29452866  0.53866691    -0.88350
H4577       H  0.83117007  0.26989123  0.51115605     0.35740
H4578       H  0.84175467  0.25667705  0.51056732     0.40840
H4579       H  0.87840530  0.30472094  0.53679228     0.40460
H4580       H  0.88897219  0.29151382  0.53596774     0.35350
C4581       C  0.72838882  0.75388394  0.44312200    -0.26380
C4582       C  0.72238032  0.75181725  0.43071902    -0.14460
C4583       C  0.72993271  0.75352365  0.41901321     0.36170
C4584       C  0.74325951  0.75700513  0.41997583    -0.25830
C4585       C  0.74937305  0.75885213  0.43235739    -0.15070
C4586       C  0.74177836  0.75746620  0.44413491     0.37260
N4587       N  0.74707328  0.75996464  0.45718087    -0.89320
H4588       H  0.72258208  0.75282143  0.45212601     0.18370
H4589       H  0.74893899  0.75819742  0.41090453     0.18360
N4590       N  0.72427685  0.75235825  0.40599906    -0.88350
H4591       H  0.74154886  0.76771613  0.46136298     0.35740
H4592       H  0.75679019  0.76341816  0.45678776     0.40840
H4593       H  0.71600106  0.75860953  0.40536261     0.40460
H4594       H  0.72135721  0.74252732  0.40446045     0.35350
C4595       C  0.63826522  0.68587344  0.38459347    -0.26380
C4596       C  0.64384608  0.69825791  0.38143998    -0.14460
C4597       C  0.64749936  0.70100612  0.36810628     0.36170
C4598       C  0.64593335  0.69109996  0.35844001    -0.25830
C4599       C  0.64081743  0.67854532  0.36168804    -0.15070
C4600       C  0.63677675  0.67593489  0.37492079     0.37260
N4601       N  0.63114526  0.66340909  0.37891673    -0.89320
H4602       H  0.63548351  0.68372174  0.39478292     0.18370
H4603       H  0.64899250  0.69314125  0.34830626     0.18360
N4604       N  0.65289794  0.71361639  0.36400243    -0.88350
H4605       H  0.63777353  0.65888556  0.38553318     0.35740
H4606       H  0.63000085  0.65693392  0.37090351     0.40840
H4607       H  0.65307940  0.72045403  0.37178666     0.40460
H4608       H  0.64648588  0.71765114  0.35687581     0.35350
C4609       C  0.49622221  0.81203279  0.48582959    -0.26380
C4610       C  0.50030397  0.81473302  0.49888089    -0.14460
C4611       C  0.49068094  0.81618529  0.50897092     0.36170
C4612       C  0.47719502  0.81563488  0.50562036    -0.25830
C4613       C  0.47312426  0.81351184  0.49246233    -0.15070
C4614       C  0.48278649  0.81126597  0.48250547     0.37260
N4615       N  0.47943326  0.80774820  0.46907553    -0.89320
H4616       H  0.50352927  0.81064482  0.47806324     0.18370
H4617       H  0.46981053  0.81721631  0.51327833     0.18360
N4618       N  0.49460061  0.81815143  0.52257038    -0.88350
H4619       H  0.48144780  0.81596762  0.46301498     0.35740
H4620       H  0.46943185  0.80537770  0.46804406     0.40840
H4621       H  0.49958197  0.80955210  0.52568543     0.40460
H4622       H  0.48629867  0.81913397  0.52870862     0.35350
C4623       C  0.56642580  0.87819112  0.55360179    -0.26380
C4624       C  0.57590857  0.86797270  0.55259944    -0.14460
C4625       C  0.58680908  0.86791687  0.56141191     0.36170
C4626       C  0.58782584  0.87796160  0.57111715    -0.25830
C4627       C  0.57813552  0.88795273  0.57226792    -0.15070
C4628       C  0.56745956  0.88825992  0.56311937     0.37260
N4629       N  0.55760385  0.89865927  0.56296988    -0.89320
H4630       H  0.55815866  0.87854444  0.54672986     0.18370
H4631       H  0.59607168  0.87785318  0.57802678     0.18360
N4632       N  0.59657313  0.85750504  0.56077590    -0.88350
H4633       H  0.55799231  0.90326299  0.55364163     0.35740
H4634       H  0.55968673  0.90614491  0.56980671     0.40840
H4635       H  0.59188382  0.84857851  0.56330157     0.40460
H4636       H  0.60398582  0.85901670  0.56787945     0.35350
C4637       C  0.59876855  0.78514965  0.46390224    -0.26380
C4638       C  0.60352366  0.79043276  0.47592624    -0.14460
C4639       C  0.61659474  0.78735027  0.47984238     0.36170
C4640       C  0.62447594  0.77904709  0.47183830    -0.25830
C4641       C  0.61964584  0.77356455  0.45990211    -0.15070
C4642       C  0.60653102  0.77678694  0.45595839     0.37260
N4643       N  0.60080721  0.77213918  0.44380752    -0.89320
H4644       H  0.58886294  0.78756132  0.46050909     0.18370
H4645       H  0.63443776  0.77674552  0.47515064     0.18360
N4646       N  0.62187548  0.79231150  0.49207303    -0.88350
H4647       H  0.59920777  0.76191097  0.44455832     0.35740
H4648       H  0.60722692  0.77425189  0.43593280     0.40840
H4649       H  0.63038903  0.79781209  0.48988703     0.40460
H4650       H  0.62467914  0.78417831  0.49795050     0.35350
C4651       C  0.68155960  0.99871977  0.50163548    -0.26380
C4652       C  0.67119080  0.00402080  0.50923856    -0.14460
C4653       C  0.66131664  0.01184386  0.50300874     0.36170
C4654       C  0.66179038  0.01373413  0.48927450    -0.25830
C4655       C  0.67201886  0.00830153  0.48150507    -0.15070
C4656       C  0.68213990  0.00082160  0.48780789     0.37260
N4657       N  0.69300591  0.99550360  0.48025765    -0.89320
H4658       H  0.68912228  0.99276491  0.50649504     0.18370
H4659       H  0.65395328  0.01951231  0.48467985     0.18360
N4660       N  0.65088892  0.01837821  0.51025868    -0.88350
H4661       H  0.69945985  0.99012532  0.48639697     0.35740
H4662       H  0.69840550  0.00355339  0.47651515     0.40840
H4663       H  0.65215325  0.01766725  0.52052547     0.40460
H4664       H  0.64197335  0.01368414  0.50784481     0.35350
C4665       C  0.61599161  0.94579289  0.59719927    -0.26380
C4666       C  0.61983175  0.94895905  0.58409990    -0.14460
C4667       C  0.61426930  0.94134326  0.57357151     0.36170
C4668       C  0.60474908  0.93169277  0.57628875    -0.25830
C4669       C  0.60083460  0.92857054  0.58930408    -0.15070
C4670       C  0.60682803  0.93553937  0.59994152     0.37260
N4671       N  0.60386534  0.93204600  0.61348191    -0.89320
H4672       H  0.62020176  0.95127740  0.60542416     0.18370
H4673       H  0.60026808  0.92666259  0.56790675     0.18360
N4674       N  0.61821908  0.94261709  0.55996837    -0.88350
H4675       H  0.60909905  0.93810115  0.62008849     0.35740
H4676       H  0.60721493  0.92230851  0.61504850     0.40840
H4677       H  0.62855318  0.94262682  0.55926797     0.40460
H4678       H  0.61394755  0.95115646  0.55587415     0.35350
C4679       C  0.74786447  0.06454845  0.73956501    -0.26380
C4680       C  0.73678860  0.06576191  0.73118603    -0.14460
C4681       C  0.72391033  0.06604506  0.73683453     0.36170
C4682       C  0.72257622  0.06488858  0.75064249    -0.25830
C4683       C  0.73367374  0.06397043  0.75899551    -0.15070
C4684       C  0.74646563  0.06371858  0.75334905     0.37260
N4685       N  0.75822061  0.06333233  0.76132929    -0.89320
H4686       H  0.75775307  0.06444884  0.73535709     0.18370
H4687       H  0.71273799  0.06530974  0.75495303     0.18360
N4688       N  0.71204729  0.06817268  0.72914500    -0.88350
H4689       H  0.75837049  0.05441630  0.76668068     0.35740
H4690       H  0.75798602  0.07130896  0.76798731     0.40840
H4691       H  0.71411934  0.07034407  0.71924446     0.40460
H4692       H  0.70740397  0.07672343  0.73282493     0.35350
C4693       C  0.79292670  0.12757893  0.66463129    -0.26380
C4694       C  0.79156481  0.11760852  0.65493446    -0.14460
C4695       C  0.79985142  0.11798230  0.64361126     0.36170
C4696       C  0.80933343  0.12821399  0.64237137    -0.25830
C4697       C  0.81084336  0.13792165  0.65228303    -0.15070
C4698       C  0.80231651  0.13773363  0.66344969     0.37260
N4699       N  0.80275570  0.14767102  0.67374257    -0.89320
H4700       H  0.78649320  0.12764184  0.67324626     0.18370
H4701       H  0.81582785  0.12843868  0.63379644     0.18360
N4702       N  0.79893349  0.10781495  0.63363053    -0.88350
H4703       H  0.79352776  0.15242428  0.67392682     0.35740
H4704       H  0.80965107  0.15511449  0.67172021     0.40840
H4705       H  0.80179415  0.09881279  0.63803054     0.40460
H4706       H  0.80564875  0.10962903  0.62592705     0.35350
C4707       C  0.70139505  0.03887241  0.63092840    -0.26380
C4708       C  0.71488593  0.04049678  0.62786276    -0.14460
C4709       C  0.72013753  0.03384502  0.61667748     0.36170
C4710       C  0.71185941  0.02593018  0.60884764    -0.25830
C4711       C  0.69833278  0.02440117  0.61179908    -0.15070
C4712       C  0.69300771  0.03113569  0.62296323     0.37260
N4713       N  0.67913824  0.03104996  0.62616737    -0.89320
H4714       H  0.69722178  0.04396283  0.63945216     0.18370
H4715       H  0.71612299  0.02076139  0.60041696     0.18360
N4716       N  0.73391368  0.03440077  0.61332326    -0.88350
H4717       H  0.67781720  0.02471854  0.63432122     0.35740
H4718       H  0.67336081  0.02756278  0.61832828     0.40840
H4719       H  0.73948298  0.03156696  0.62163454     0.40460
H4720       H  0.73631959  0.04414779  0.61067840     0.35350
C4721       C  0.49619078  0.99849792  0.68316029    -0.26380
C4722       C  0.48541524  0.98969791  0.68330847    -0.14460
C4723       C  0.47234397  0.99487457  0.68394616     0.36170
C4724       C  0.47053705  0.00867137  0.68474647    -0.25830
C4725       C  0.48131158  0.01745835  0.68443373    -0.15070
C4726       C  0.49431214  0.01225535  0.68365893     0.37260
N4727       N  0.50575767  0.02060558  0.68267880    -0.89320
H4728       H  0.50621024  0.99463279  0.68249808     0.18370
H4729       H  0.46052781  0.01259948  0.68513046     0.18360
N4730       N  0.46068295  0.98667877  0.68315518    -0.88350
H4731       H  0.50675816  0.02598390  0.69148095     0.35740
H4732       H  0.50447692  0.02719454  0.67471532     0.40840
H4733       H  0.46298142  0.97676735  0.68121831     0.40460
H4734       H  0.45520644  0.98986883  0.67490520     0.35350
C4735       C  0.53797693  0.91759677  0.61953029    -0.26380
C4736       C  0.54081372  0.91315789  0.63247802    -0.14460
C4737       C  0.55344663  0.90760752  0.63525756     0.36170
C4738       C  0.56276877  0.90656714  0.62496920    -0.25830
C4739       C  0.55992786  0.91109876  0.61208424    -0.15070
C4740       C  0.54731756  0.91660792  0.60928435     0.37260
N4741       N  0.54374220  0.92161437  0.59635273    -0.89320
H4742       H  0.52841262  0.92205740  0.61738849     0.18370
H4743       H  0.57244018  0.90234855  0.62710633     0.18360
N4744       N  0.55738679  0.90333723  0.64834384    -0.88350
H4745       H  0.53606130  0.91567194  0.59272086     0.35740
H4746       H  0.55153371  0.92085605  0.58958666     0.40840
H4747       H  0.54997247  0.90491196  0.65536692     0.40460
H4748       H  0.56538114  0.90925484  0.65127274     0.35350
C4749       C  0.41132829  0.76173820  0.74691065    -0.26380
C4750       C  0.42353412  0.76754370  0.75008581    -0.14460
C4751       C  0.43512467  0.75957281  0.75026512     0.36170
C4752       C  0.43412422  0.74600800  0.74720272    -0.25830
C4753       C  0.42186916  0.74018861  0.74411057    -0.15070
C4754       C  0.41030922  0.74815275  0.74406645     0.37260
N4755       N  0.39750929  0.74240003  0.74159002    -0.89320
H4756       H  0.40245588  0.76784560  0.74683443     0.18370
H4757       H  0.44301478  0.73993635  0.74737028     0.18360
N4758       N  0.44788577  0.76460161  0.75412405    -0.88350
H4759       H  0.39009361  0.74968673  0.74177113     0.35740
H4760       H  0.39546785  0.73583694  0.74940627     0.40840
H4761       H  0.44743107  0.77444148  0.75735378     0.40460
H4762       H  0.45400572  0.76436671  0.74574490     0.35350
C4763       C  0.37284703  0.85085090  0.81283846    -0.26380
C4764       C  0.36969113  0.84425151  0.80098812    -0.14460
C4765       C  0.35674850  0.83904658  0.79924179     0.36170
C4766       C  0.34753188  0.84015473  0.80960593    -0.25830
C4767       C  0.35081471  0.84644212  0.82157202    -0.15070
C4768       C  0.36361471  0.85195538  0.82319695     0.37260
N4769       N  0.36761190  0.85870505  0.83514318    -0.89320
H4770       H  0.38274201  0.85478719  0.81424902     0.18370
H4771       H  0.33766557  0.83611474  0.80828230     0.18360
N4772       N  0.35254660  0.83270373  0.78713402    -0.88350
H4773       H  0.37525193  0.85313659  0.83947337     0.35740
H4774       H  0.35999052  0.85914675  0.84213208     0.40840
H4775       H  0.35981195  0.83319382  0.77978574     0.40460
H4776       H  0.34450862  0.83813836  0.78339942     0.35350
C4777       C  0.45210969  0.86734171  0.71470133    -0.26380
C4778       C  0.44988276  0.87083842  0.72803926    -0.14460
C4779       C  0.45608783  0.88234865  0.73315049     0.36170
C4780       C  0.46425740  0.88999299  0.72489875    -0.25830
C4781       C  0.46651814  0.88648906  0.71156124    -0.15070
C4782       C  0.46025723  0.87500089  0.70643524     0.37260
N4783       N  0.46153228  0.87107866  0.69281798    -0.89320
H4784       H  0.44740812  0.85856093  0.71061500     0.18370
H4785       H  0.46896526  0.89875717  0.72901064     0.18360
N4786       N  0.45473037  0.88629349  0.74675447    -0.88350
H4787       H  0.47134248  0.86833611  0.69102521     0.35740
H4788       H  0.45898479  0.87914307  0.68673356     0.40840
H4789       H  0.45736696  0.87827341  0.75285920     0.40460
H4790       H  0.44486922  0.88887197  0.74852082     0.35350
C4791       C  0.49513177  0.69291762  0.00669982    -0.26380
C4792       C  0.49947897  0.69206143  0.99349622    -0.14460
C4793       C  0.49005453  0.69164017  0.98305140     0.36170
C4794       C  0.47657154  0.69098750  0.98620742    -0.25830
C4795       C  0.47228651  0.69099445  0.99945290    -0.15070
C4796       C  0.48166697  0.69235751  0.00978939     0.37260
N4797       N  0.47783753  0.69344088  0.02345909    -0.89320
H4798       H  0.50227988  0.69346635  0.01473080     0.18370
H4799       H  0.46938519  0.69026772  0.97822440     0.18360
N4800       N  0.49371948  0.69193997  0.96922231    -0.88350
H4801       H  0.47331929  0.68459741  0.02644773     0.35740
H4802       H  0.47103612  0.70125529  0.02435817     0.40840
H4803       H  0.50382742  0.69367299  0.96800574     0.40460
H4804       H  0.48903370  0.70018218  0.96490420     0.35350
C4805       C  0.23016457  0.73868352  0.93278960    -0.26380
C4806       C  0.22159306  0.74968729  0.93336284    -0.14460
C4807       C  0.22697948  0.76268795  0.93420577     0.36170
C4808       C  0.24075479  0.76418504  0.93469010    -0.25830
C4809       C  0.24929814  0.75319080  0.93385698    -0.15070
C4810       C  0.24392389  0.74022944  0.93285403     0.37260
N4811       N  0.25191956  0.72850202  0.93104258    -0.89320
H4812       H  0.22610667  0.72873323  0.93193341     0.18370
H4813       H  0.24486072  0.77413818  0.93525924     0.18360
N4814       N  0.21900407  0.77459392  0.93398434    -0.88350
H4815       H  0.25105957  0.72268331  0.93962971     0.35740
H4816       H  0.26191928  0.73068914  0.92976510     0.40840
H4817       H  0.20903712  0.77254982  0.93232910     0.40460
H4818       H  0.22198562  0.78026532  0.92578548     0.35350
C4819       C  0.33679040  0.81210626  0.87870743    -0.26380
C4820       C  0.32376204  0.80933671  0.88296338    -0.14460
C4821       C  0.31330803  0.81712919  0.87740867     0.36170
C4822       C  0.31600789  0.82657082  0.86762900    -0.25830
C4823       C  0.32892936  0.82931207  0.86334493    -0.15070
C4824       C  0.33951683  0.82213360  0.86920908     0.37260
N4825       N  0.35299448  0.82518308  0.86577073    -0.89320
H4826       H  0.34498175  0.80649181  0.88283652     0.18370
H4827       H  0.30766786  0.83176063  0.86322566     0.18360
N4828       N  0.29977501  0.81620061  0.88151113    -0.88350
H4829       H  0.35958024  0.81903362  0.87097445     0.35740
H4830       H  0.35488073  0.83493060  0.86885776     0.40840
H4831       H  0.29914118  0.81659889  0.89187526     0.40460
H4832       H  0.29555628  0.80761299  0.87753691     0.35350
C4833       C  0.36259211  0.73884388  0.96725109    -0.26380
C4834       C  0.35240173  0.73230569  0.96042689    -0.14460
C4835       C  0.35102820  0.71835076  0.96194960     0.36170
C4836       C  0.35957855  0.71139525  0.97044713    -0.25830
C4837       C  0.36962546  0.71795248  0.97746931    -0.15070
C4838       C  0.37109029  0.73192671  0.97588897     0.37260
N4839       N  0.38052830  0.73958328  0.98334316    -0.89320
H4840       H  0.36364556  0.74954110  0.96626822     0.18370
H4841       H  0.35855768  0.70068497  0.97132026     0.18360
N4842       N  0.34152578  0.71083652  0.95451674    -0.88350
H4843       H  0.38802402  0.74255390  0.97681652     0.35740
H4844       H  0.38484999  0.73408717  0.99101408     0.40840
H4845       H  0.34270363  0.71301490  0.94441636     0.40460
H4846       H  0.33199319  0.71352389  0.95747748     0.35350
C4847       C  0.97730180  0.19384638  0.98561760    -0.26380
C4848       C  0.97303309  0.19178162  0.99873217    -0.14460
C4849       C  0.98247747  0.19068774  0.00904222     0.36170
C4850       C  0.99600956  0.19109751  0.00590647    -0.25830
C4851       C  0.00024061  0.19252902  0.99272409    -0.15070
C4852       C  0.99078860  0.19420307  0.98246019     0.37260
N4853       N  0.99444556  0.19651744  0.96883073    -0.89320
H4854       H  0.97010500  0.19486768  0.97767542     0.18370
H4855       H  0.00330749  0.18986158  0.01372997     0.18360
N4856       N  0.97831635  0.18916602  0.02262755    -0.88350
H4857       H  0.99163479  0.18815658  0.96334499     0.35740
H4858       H  0.00465124  0.19766783  0.96768542     0.40840
H4859       H  0.97328720  0.19786093  0.02532765     0.40460
H4860       H  0.98651384  0.18838241  0.02894820     0.35350
C4861       C  0.22646013  0.24327049  0.05387587    -0.26380
C4862       C  0.22187495  0.25616907  0.05654331    -0.14460
C4863       C  0.23100847  0.26674885  0.05746522     0.36170
C4864       C  0.24462268  0.26401566  0.05655006    -0.25830
C4865       C  0.24922615  0.25097430  0.05462415    -0.15070
C4866       C  0.23998654  0.24054885  0.05276678     0.37260
N4867       N  0.24386723  0.22719676  0.04940811    -0.89320
H4868       H  0.21948650  0.23514486  0.05286037     0.18370
H4869       H  0.25168328  0.27202865  0.05781468     0.18360
N4870       N  0.22644810  0.28018501  0.05934614    -0.88350
H4871       H  0.24259213  0.22124808  0.05785303     0.35740
H4872       H  0.25376958  0.22663271  0.04649660     0.40840
H4873       H  0.22100386  0.28288134  0.05090604     0.40460
H4874       H  0.23445264  0.28675479  0.05988532     0.35350
C4875       C  0.15638028  0.31641585  0.11382084    -0.26380
C4876       C  0.14524017  0.30939431  0.10913236    -0.14460
C4877       C  0.13274348  0.31233751  0.11492016     0.36170
C4878       C  0.13177982  0.32202387  0.12490901    -0.25830
C4879       C  0.14299532  0.32879731  0.12967610    -0.15070
C4880       C  0.15551408  0.32562271  0.12424390     0.37260
N4881       N  0.16741267  0.33141848  0.12956861    -0.89320
H4882       H  0.16602798  0.31463813  0.10951980     0.18370
H4883       H  0.12207975  0.32432026  0.12891690     0.18360
N4884       N  0.12083281  0.30564013  0.11116254    -0.88350
H4885       H  0.17578990  0.32804737  0.12446167     0.35740
H4886       H  0.16839795  0.32812229  0.13938937     0.40840
H4887       H  0.12230270  0.29536096  0.11193619     0.40460
H4888       H  0.11845315  0.30830725  0.10141616     0.35350
C4889       C  0.12452574  0.22700167  0.01921445    -0.26380
C4890       C  0.11951334  0.23289220  0.03086221    -0.14460
C4891       C  0.10619801  0.23053475  0.03441323     0.36170
C4892       C  0.09825972  0.22251601  0.02621592    -0.25830
C4893       C  0.10322628  0.21667886  0.01450343    -0.15070
C4894       C  0.11656803  0.21902570  0.01097412     0.37260
N4895       N  0.12197799  0.21362145  0.99892217    -0.89320
H4896       H  0.13467766  0.22886650  0.01629839     0.18370
H4897       H  0.08814938  0.22062125  0.02922811     0.18360
N4898       N  0.10080824  0.23597229  0.04646548    -0.88350
H4899       H  0.13200356  0.21604726  0.99796731     0.35740
H4900       H  0.11707538  0.21819318  0.99096260     0.40840
H4901       H  0.10577046  0.23147790  0.05443178     0.40460
H4902       H  0.09079915  0.23350203  0.04747586     0.35350
C4903       C  0.38920562  0.62672351  0.04846244    -0.26380
C4904       C  0.39459519  0.63889656  0.05242836    -0.14460
C4905       C  0.39801360  0.64077159  0.06588011     0.36170
C4906       C  0.39579312  0.63056631  0.07509423    -0.25830
C4907       C  0.39093259  0.61801173  0.07117573    -0.15070
C4908       C  0.38753725  0.61621673  0.05751909     0.37260
N4909       N  0.38327948  0.60372080  0.05219320    -0.89320
H4910       H  0.38682053  0.62514909  0.03807214     0.18370
H4911       H  0.39824659  0.63242602  0.08540935     0.18360
N4912       N  0.40384672  0.65292368  0.07045468    -0.88350
H4913       H  0.37346833  0.60195593  0.05489798     0.35740
H4914       H  0.38947856  0.59610831  0.05563923     0.40840
H4915       H  0.39753526  0.66080339  0.06793446     0.40460
H4916       H  0.41288428  0.65428695  0.06558084     0.35350
C4917       C  0.24432455  0.44228899  0.23491502    -0.26380
C4918       C  0.23107759  0.44180595  0.23069385    -0.14460
C4919       C  0.22080969  0.44192795  0.24032231     0.36170
C4920       C  0.22414905  0.44119554  0.25382112    -0.25830
C4921       C  0.23740661  0.44089449  0.25796368    -0.15070
C4922       C  0.24758920  0.44189982  0.24838869     0.37260
N4923       N  0.26128672  0.44288045  0.25200748    -0.89320
H4924       H  0.25227228  0.44251852  0.22767632     0.18370
H4925       H  0.21628160  0.44081854  0.26114642     0.18360
N4926       N  0.20699885  0.44301654  0.23687977    -0.88350
H4927       H  0.26427379  0.43405655  0.25661017     0.35740
H4928       H  0.26238736  0.45076528  0.25868476     0.40840
H4929       H  0.20576341  0.44538784  0.22686260     0.40460
H4930       H  0.20315117  0.45123738  0.24195568     0.35350
C4931       C  0.16491190  0.39420850  0.15368839    -0.26380
C4932       C  0.17828313  0.39086184  0.15187378    -0.14460
C4933       C  0.18176078  0.37755961  0.14888047     0.36170
C4934       C  0.17181156  0.36786487  0.14844650    -0.25830
C4935       C  0.15841368  0.37107400  0.15069204    -0.15070
C4936       C  0.15494439  0.38455948  0.15295379     0.37260
N4937       N  0.14145257  0.38890222  0.15402878    -0.89320
H4938       H  0.16220977  0.40441814  0.15591079     0.18370
H4939       H  0.17464479  0.35761856  0.14658121     0.18360
N4940       N  0.19523856  0.37339228  0.14672525    -0.88350
H4941       H  0.13728389  0.38516818  0.16274307     0.35740
H4942       H  0.13615248  0.38534029  0.14584731     0.40840
H4943       H  0.20185013  0.38133171  0.14734604     0.40460
H4944       H  0.19588257  0.36980078  0.13699563     0.35350
C4945       C  0.30138415  0.49161188  0.98945674    -0.26380
C4946       C  0.29895316  0.50195789  0.98036353    -0.14460
C4947       C  0.29650331  0.51494520  0.98515352     0.36170
C4948       C  0.29655025  0.51723467  0.99891875    -0.25830
C4949       C  0.29911757  0.50690379  0.00795988    -0.15070
C4950       C  0.30165113  0.49390381  0.00315528     0.37260
N4951       N  0.30529304  0.48296008  0.01166148    -0.89320
H4952       H  0.30337184  0.48163332  0.98588439     0.18370
H4953       H  0.29470704  0.52718943  0.00264128     0.18360
N4954       N  0.29440056  0.52583716  0.97609271    -0.88350
H4955       H  0.29744085  0.47618874  0.01168457     0.35740
H4956       H  0.30695685  0.48590338  0.02144453     0.40840
H4957       H  0.30320892  0.52727090  0.97081763     0.40460
H4958       H  0.29258797  0.53466915  0.98127520     0.35350
C4959       C  0.36201242  0.55425895  0.08844190    -0.26380
C4960       C  0.34880613  0.55856795  0.08808678    -0.14460
C4961       C  0.34594195  0.57230272  0.08939509     0.36170
C4962       C  0.35638026  0.58134134  0.09107478    -0.25830
C4963       C  0.36966218  0.57711079  0.09115844    -0.15070
C4964       C  0.37244561  0.56332658  0.08981135     0.37260
N4965       N  0.38571319  0.55829841  0.08886624    -0.89320
H4966       H  0.36426997  0.54379585  0.08703827     0.18370
H4967       H  0.35409383  0.59184772  0.09201824     0.18360
N4968       N  0.33264677  0.57747680  0.08890796    -0.88350
H4969       H  0.39060994  0.55984320  0.09786434     0.35740
H4970       H  0.39066340  0.56343264  0.08130839     0.40840
H4971       H  0.32561854  0.56992588  0.08803525     0.40460
H4972       H  0.33184746  0.58338945  0.08037160     0.35350
C4973       C  0.26716175  0.48773966  0.12176882    -0.26380
C4974       C  0.27119161  0.48199115  0.10973726    -0.14460
C4975       C  0.26740611  0.46869104  0.10696129     0.36170
C4976       C  0.25979479  0.46159312  0.11618072    -0.25830
C4977       C  0.25580911  0.46731717  0.12824323    -0.15070
C4978       C  0.25952788  0.48065363  0.13097963     0.37260
N4979       N  0.25531490  0.48753983  0.14269637    -0.89320
H4980       H  0.26985050  0.49793723  0.12399943     0.18370
H4981       H  0.25712118  0.45139409  0.11394238     0.18360
N4982       N  0.27153950  0.46185694  0.09518640    -0.88350
H4983       H  0.26007620  0.48346254  0.15095910     0.35740
H4984       H  0.24505325  0.48655784  0.14369590     0.40840
H4985       H  0.28181523  0.46271319  0.09421682     0.40460
H4986       H  0.26686884  0.46611052  0.08695755     0.35350
C4987       C  0.56120663  0.74667626  0.25006574    -0.26380
C4988       C  0.54957999  0.73937261  0.24774178    -0.14460
C4989       C  0.53815017  0.74616585  0.24308211     0.36170
C4990       C  0.53871260  0.75988036  0.24074673    -0.25830
C4991       C  0.55042793  0.76702424  0.24281645    -0.15070
C4992       C  0.56175296  0.76040761  0.24787105     0.37260
N4993       N  0.57384425  0.76723114  0.25118053    -0.89320
H4994       H  0.57002361  0.74169793  0.25372899     0.18370
H4995       H  0.52997678  0.76497283  0.23701944     0.18360
N4996       N  0.52574784  0.73961492  0.24095019    -0.88350
H4997       H  0.57563149  0.76567505  0.26131062     0.35740
H4998       H  0.57295008  0.77751130  0.25005363     0.40840
H4999       H  0.52324213  0.73423982  0.24949527     0.40460
H5000       H  0.52665643  0.73318334  0.23287818     0.35350
C5001       C  0.61203299  0.66752802  0.29907368    -0.26380
C5002       C  0.59975724  0.66145529  0.30158591    -0.14460
C5003       C  0.59791312  0.65440925  0.31366696     0.36170
C5004       C  0.60838212  0.65370344  0.32284407    -0.25830
C5005       C  0.62054114  0.65998145  0.32039354    -0.15070
C5006       C  0.62246957  0.66683603  0.30825314     0.37260
N5007       N  0.63466790  0.67349036  0.30503069    -0.89320
H5008       H  0.61345090  0.67309838  0.28993779     0.18370
H5009       H  0.60690281  0.64845270  0.33215519     0.18360
N5010       N  0.58553893  0.64828443  0.31723086    -0.88350
H5011       H  0.63866379  0.66880441  0.29666627     0.35740
H5012       H  0.64168533  0.67253543  0.31259734     0.40840
H5013       H  0.57835164  0.64955966  0.30989329     0.40460
H5014       H  0.58197217  0.65312915  0.32570097     0.35350
C5015       C  0.47393427  0.50711406  0.18151838    -0.26380
C5016       C  0.48489245  0.51568057  0.18115170    -0.14460
C5017       C  0.49785921  0.51020385  0.18132942     0.36170
C5018       C  0.49938494  0.49638010  0.18230684    -0.25830
C5019       C  0.48842238  0.48781008  0.18242717    -0.15070
C5020       C  0.47551840  0.49331908  0.18206398     0.37260
N5021       N  0.46383587  0.48526859  0.18158584    -0.89320
H5022       H  0.46397817  0.51118900  0.18125313     0.18370
H5023       H  0.50932243  0.49225527  0.18239763     0.18360
N5024       N  0.50966150  0.51810260  0.17984825    -0.88350
H5025       H  0.46294766  0.48007435  0.19053158     0.35740
H5026       H  0.46466347  0.47855033  0.17370419     0.40840
H5027       H  0.50748502  0.52794940  0.17744533     0.40460
H5028       H  0.51481938  0.51447358  0.17159465     0.35350
C5029       C  0.43386940  0.59298918  0.11898148    -0.26380
C5030       C  0.42974815  0.59393141  0.13226411    -0.14460
C5031       C  0.41613050  0.59574572  0.13510964     0.36170
C5032       C  0.40705838  0.59674130  0.12457635    -0.25830
C5033       C  0.41115176  0.59573739  0.11126611    -0.15070
C5034       C  0.42476850  0.59382037  0.10848886     0.37260
N5035       N  0.42955746  0.59189535  0.09522169    -0.89320
H5036       H  0.44422473  0.59115055  0.11676255     0.18370
H5037       H  0.39663686  0.59809297  0.12682260     0.18360
N5038       N  0.41108612  0.59630707  0.14847159    -0.88350
H5039       H  0.42788559  0.60053805  0.08969047     0.35740
H5040       H  0.42431338  0.58404980  0.09089943     0.40840
H5041       H  0.41863590  0.59564606  0.15553299     0.40460
H5042       H  0.40500360  0.58800708  0.14988085     0.35350
C5043       C  0.50818610  0.63121496  0.20542866    -0.26380
C5044       C  0.50543103  0.61857302  0.21061289    -0.14460
C5045       C  0.51066839  0.61506789  0.22320846     0.36170
C5046       C  0.51862267  0.62422434  0.23015135    -0.25830
C5047       C  0.52134707  0.63695492  0.22501020    -0.15070
C5048       C  0.51595753  0.64038744  0.21236694     0.37260
N5049       N  0.51844274  0.65285171  0.20592409    -0.89320
H5050       H  0.50440468  0.63400470  0.19572557     0.18370
H5051       H  0.52249569  0.62144448  0.23981132     0.18360
N5052       N  0.50771729  0.60235622  0.22908263    -0.88350
H5053       H  0.52859426  0.65487987  0.20610287     0.35740
H5054       H  0.51303241  0.66031358  0.21066497     0.40840
H5055       H  0.49753597  0.60210947  0.23097940     0.40460
H5056       H  0.51246673  0.60128579  0.23826780     0.35350
C5057       C  0.97298207  0.49734185  0.30835678    -0.26380
C5058       C  0.98378689  0.48853017  0.30842736    -0.14460
C5059       C  0.99684434  0.49367748  0.30779852     0.36170
C5060       C  0.99861384  0.50745812  0.30677870    -0.25830
C5061       C  0.98781077  0.51626979  0.30687421    -0.15070
C5062       C  0.97482061  0.51109199  0.30763657     0.37260
N5063       N  0.96334035  0.51946659  0.30836832    -0.89320
H5064       H  0.96297226  0.49349219  0.30900422     0.18370
H5065       H  0.00861638  0.51135919  0.30640069     0.18360
N5066       N  0.00852255  0.48547071  0.30880980    -0.88350
H5067       H  0.96240581  0.52473159  0.29946289     0.35740
H5068       H  0.96452735  0.52615446  0.31622740     0.40840
H5069       H  0.00623476  0.47558284  0.31087601     0.40460
H5070       H  0.01392403  0.48873978  0.31705386     0.35350
C5071       C  0.91775356  0.40935778  0.35747575    -0.26380
C5072       C  0.93088774  0.41155119  0.36138925    -0.14460
C5073       C  0.93395175  0.41257758  0.37509127     0.36170
C5074       C  0.92372786  0.41155099  0.38448420    -0.25830
C5075       C  0.91052140  0.40960800  0.38056974    -0.15070
C5076       C  0.90752880  0.40833015  0.36684700     0.37260
N5077       N  0.89437704  0.40568727  0.36201751    -0.89320
H5078       H  0.91537469  0.40865335  0.34698638     0.18370
H5079       H  0.92609600  0.41245243  0.39495895     0.18360
N5080       N  0.94721475  0.41480382  0.37984266    -0.88350
H5081       H  0.89112689  0.41415236  0.35688518     0.35740
H5082       H  0.88765796  0.40392390  0.36968567     0.40840
H5083       H  0.95405195  0.41518756  0.37207640     0.40460
H5084       H  0.94988567  0.40659253  0.38567521     0.35350
C5085       C  0.06076705  0.26064786  0.24158783    -0.26380
C5086       C  0.04837539  0.26697529  0.24100777    -0.14460
C5087       C  0.03673677  0.25944711  0.24324430     0.36170
C5088       C  0.03788987  0.24586735  0.24621549    -0.25830
C5089       C  0.05030079  0.23959271  0.24687771    -0.15070
C5090       C  0.06191788  0.24704225  0.24429069     0.37260
N5091       N  0.07496603  0.24121600  0.24396427    -0.89320
H5092       H  0.06971418  0.26633671  0.23980793     0.18370
H5093       H  0.02897226  0.24012321  0.24796636     0.18360
N5094       N  0.02363055  0.26495735  0.24200937    -0.88350
H5095       H  0.07886520  0.24288635  0.23447594     0.35740
H5096       H  0.07471512  0.23090718  0.24506157     0.40840
H5097       H  0.02370908  0.27467416  0.23835798     0.40460
H5098       H  0.01941905  0.26518239  0.25150059     0.35350
C5099       C  0.09726998  0.34319107  0.17721980    -0.26380
C5100       C  0.10046145  0.34448206  0.19070307    -0.14460
C5101       C  0.11379570  0.34675151  0.19443490     0.36170
C5102       C  0.12360644  0.34728583  0.18453670    -0.25830
C5103       C  0.12045062  0.34572288  0.17100078    -0.15070
C5104       C  0.10699060  0.34394730  0.16736705     0.37260
N5105       N  0.10274163  0.34342850  0.15377451    -0.89320
H5106       H  0.08706600  0.34148280  0.17431039     0.18370
H5107       H  0.13382665  0.34879627  0.18747567     0.18360
N5108       N  0.11784020  0.34810380  0.20807982    -0.88350
H5109       H  0.10634044  0.33477523  0.14933684     0.35740
H5110       H  0.10643896  0.35174454  0.14873909     0.40840
H5111       H  0.10983760  0.34736310  0.21459350     0.40460
H5112       H  0.12169442  0.35768715  0.20923480     0.35350
C5113       C  0.00847559  0.36633115  0.26730071    -0.26380
C5114       C  0.02199727  0.36956883  0.26640810    -0.14460
C5115       C  0.02669362  0.38100535  0.27315530     0.36170
C5116       C  0.01765580  0.38903756  0.28008067    -0.25830
C5117       C  0.00414934  0.38577805  0.28098956    -0.15070
C5118       C  0.99945845  0.37431810  0.27430312     0.37260
N5119       N  0.98567963  0.37066192  0.27392309    -0.89320
H5120       H  0.00475217  0.35763577  0.26215188     0.18370
H5121       H  0.02135246  0.39776088  0.28520446     0.18360
N5122       N  0.04048974  0.38458175  0.27370535    -0.88350
H5123       H  0.98275106  0.37055582  0.26394757     0.35740
H5124       H  0.97967179  0.37776833  0.27844469     0.40840
H5125       H  0.04652436  0.37727438  0.26956048     0.40460
H5126       H  0.04322920  0.38492162  0.28372917     0.35350
C5127       C  0.08689226  0.13253263  0.93717173    -0.26380
C5128       C  0.07409104  0.13769782  0.93931463    -0.14460
C5129       C  0.06370498  0.13317315  0.93090158     0.36170
C5130       C  0.06610749  0.12314761  0.92165508    -0.25830
C5131       C  0.07882017  0.11786756  0.91953311    -0.15070
C5132       C  0.08945410  0.12300715  0.92717982     0.37260
N5133       N  0.10285175  0.11885644  0.92462790    -0.89320
H5134       H  0.09503602  0.13600861  0.94323925     0.18370
H5135       H  0.05769634  0.11943865  0.91611652     0.18360
N5136       N  0.05066514  0.13881187  0.93084878    -0.88350
H5137       H  0.10945286  0.12357120  0.93109394     0.35740
H5138       H  0.10530316  0.12199378  0.91502217     0.40840
H5139       H  0.05120467  0.14920453  0.93099955     0.40460
H5140       H  0.04523929  0.13500186  0.93880626     0.35350
C5141       C  0.97673392  0.01054926  0.81257511    -0.26380
C5142       C  0.98932595  0.01470902  0.80847982    -0.14460
C5143       C  0.99884294  0.00512457  0.80453668     0.36170
C5144       C  0.99564700  0.99158880  0.80536567    -0.25830
C5145       C  0.98319184  0.98738243  0.80991574    -0.15070
C5146       C  0.97359004  0.99699993  0.81335473     0.37260
N5147       N  0.96057522  0.99310171  0.81745789    -0.89320
H5148       H  0.96937683  0.01786468  0.81548972     0.18370
H5149       H  0.00308109  0.98430159  0.80260823     0.18360
N5150       N  0.01173771  0.00867471  0.79957392    -0.88350
H5151       H  0.95372348  0.99743018  0.81094221     0.35740
H5152       H  0.95887776  0.99697639  0.82694877     0.40840
H5153       H  0.01286882  0.01895809  0.79874246     0.40460
H5154       H  0.01249364  0.00497781  0.78989187     0.35350
C5155       C  0.04188809  0.08621580  0.87017675    -0.26380
C5156       C  0.04333423  0.09300874  0.85804909    -0.14460
C5157       C  0.05453842  0.10130779  0.85612746     0.36170
C5158       C  0.06386706  0.10256564  0.86642638    -0.25830
C5159       C  0.06249112  0.09552038  0.87839034    -0.15070
C5160       C  0.05123243  0.08738678  0.88037948     0.37260
N5161       N  0.04898383  0.08006051  0.89249038    -0.89320
H5162       H  0.03339892  0.07979439  0.87171672     0.18370
H5163       H  0.07247949  0.10882343  0.86493326     0.18360
N5164       N  0.05712237  0.10817305  0.84383426    -0.88350
H5165       H  0.04026988  0.08372738  0.89676327     0.35740
H5166       H  0.05648049  0.08156132  0.89946664     0.40840
H5167       H  0.04999175  0.10613039  0.83664114     0.40460
H5168       H  0.06606703  0.10451203  0.84006150     0.35350
C5169       C  0.93461970  0.24522317  0.74129343    -0.26380
C5170       C  0.92273099  0.23812255  0.74248790    -0.14460
C5171       C  0.91103981  0.24485426  0.74634199     0.36170
C5172       C  0.91141523  0.25858500  0.74829167    -0.25830
C5173       C  0.92321259  0.26583864  0.74686962    -0.15070
C5174       C  0.93501946  0.25904495  0.74351094     0.37260
N5175       N  0.94735092  0.26610162  0.74250920    -0.89320
H5176       H  0.94357325  0.23997979  0.73844010     0.18370
H5177       H  0.90228543  0.26359888  0.75095259     0.18360
N5178       N  0.89872788  0.23811956  0.74886523    -0.88350
H5179       H  0.95502816  0.25963142  0.73983811     0.35740
H5180       H  0.94966255  0.26970352  0.75197432     0.40840
H5181       H  0.89977024  0.22778989  0.74889611     0.40460
H5182       H  0.89213065  0.24068340  0.74125560     0.35350
C5183       C  0.87535869  0.16248449  0.67606431    -0.26380
C5184       C  0.87227442  0.16013314  0.68944495    -0.14460
C5185       C  0.85914536  0.15667121  0.69293620     0.36170
C5186       C  0.84935821  0.15633155  0.68300747    -0.25830
C5187       C  0.85231934  0.15908997  0.66959505    -0.15070
C5188       C  0.86567733  0.16180482  0.66611880     0.37260
N5189       N  0.86992514  0.16332793  0.65260341    -0.89320
H5190       H  0.88543216  0.16502266  0.67331960     0.18370
H5191       H  0.83924937  0.15412698  0.68588652     0.18360
N5192       N  0.85522982  0.15394521  0.70641798    -0.88350
H5193       H  0.86633324  0.17225346  0.64870667     0.35740
H5194       H  0.86634160  0.15534827  0.64700947     0.40840
H5195       H  0.86318395  0.15463121  0.71300215     0.40460
H5196       H  0.85198318  0.14407157  0.70680551     0.35350
C5197       C  0.94560933  0.12302229  0.76873421    -0.26380
C5198       C  0.95102195  0.13533073  0.76501300    -0.14460
C5199       C  0.96388858  0.13867951  0.76952525     0.36170
C5200       C  0.97082837  0.12981083  0.77785906    -0.25830
C5201       C  0.96539859  0.11751820  0.78160382    -0.15070
C5202       C  0.95255385  0.11414958  0.77705633     0.37260
N5203       N  0.94640172  0.10192174  0.78117037    -0.89320
H5204       H  0.93571681  0.12045094  0.76545901     0.18370
H5205       H  0.98071792  0.13237955  0.78114855     0.18360
N5206       N  0.97005685  0.15088973  0.76538398    -0.88350
H5207       H  0.93703127  0.10090942  0.77685083     0.35740
H5208       H  0.94492245  0.10244845  0.79144404     0.40840
H5209       H  0.97150476  0.15035096  0.75510648     0.40460
H5210       H  0.97944250  0.15188318  0.76967521     0.35350
C5211       C  0.17575202  0.99128724  0.98655793    -0.26380
C5212       C  0.17410152  0.00454887  0.98245069    -0.14460
C5213       C  0.17337562  0.01472454  0.99208939     0.36170
C5214       C  0.17365678  0.01131154  0.00561723    -0.25830
C5215       C  0.17480430  0.99799766  0.00970567    -0.15070
C5216       C  0.17624528  0.98788215  0.00003331     0.37260
N5217       N  0.17869024  0.97417859  0.00341016    -0.89320
H5218       H  0.17654513  0.98342686  0.97923859     0.18370
H5219       H  0.17267639  0.01907325  0.01302301     0.18360
N5220       N  0.17244322  0.02846458  0.98814592    -0.88350
H5221       H  0.17010136  0.96879499  0.00125920     0.35740
H5222       H  0.18084441  0.97291088  0.01347427     0.40840
H5223       H  0.18122414  0.03090598  0.98320610     0.40460
H5224       H  0.17189207  0.03465753  0.99647147     0.35350
C5225       C  0.11453098  0.08078574  0.90576627    -0.26380
C5226       C  0.10173895  0.07651972  0.90231482    -0.14460
C5227       C  0.09954856  0.06281922  0.89989652     0.36170
C5228       C  0.11023359  0.05381617  0.90078582    -0.25830
C5229       C  0.12292284  0.05813344  0.90442831    -0.15070
C5230       C  0.12511593  0.07182098  0.90689821     0.37260
N5231       N  0.13787229  0.07700939  0.91062124    -0.89320
H5232       H  0.11637691  0.09126469  0.90752141     0.18370
H5233       H  0.10854032  0.04328083  0.89922286     0.18360
N5234       N  0.08644436  0.05802026  0.89703240    -0.88350
H5235       H  0.14074024  0.08379602  0.90327309     0.35740
H5236       H  0.14515452  0.06962520  0.91073928     0.40840
H5237       H  0.08057327  0.05978907  0.90540906     0.40460
H5238       H  0.08654406  0.04771527  0.89557298     0.35350
C5239       C  0.24816474  0.93871249  0.74947067    -0.26380
C5240       C  0.23743338  0.93870108  0.75832938    -0.14460
C5241       C  0.22432931  0.93892702  0.75321125     0.36170
C5242       C  0.22245058  0.93965049  0.73942794    -0.25830
C5243       C  0.23319621  0.93958771  0.73058343    -0.15070
C5244       C  0.24622795  0.93908355  0.73573719     0.37260
N5245       N  0.25768372  0.93829570  0.72737751    -0.89320
H5246       H  0.25821789  0.93836209  0.75326949     0.18370
H5247       H  0.21241800  0.93979797  0.73556566     0.18360
N5248       N  0.21272847  0.93780451  0.76146321    -0.88350
H5249       H  0.25856851  0.94715710  0.72202856     0.35740
H5250       H  0.25654625  0.93033081  0.72080356     0.40840
H5251       H  0.21514656  0.93570989  0.77130876     0.40460
H5252       H  0.20741845  0.92948194  0.75824080     0.35350
C5253       C  0.28898044  0.87785843  0.83944282    -0.26380
C5254       C  0.29314399  0.89098536  0.83736323    -0.14460
C5255       C  0.30686240  0.89385749  0.83688751     0.36170
C5256       C  0.31604737  0.88351102  0.83869310    -0.25830
C5257       C  0.31191198  0.87032491  0.84071702    -0.15070
C5258       C  0.29815263  0.86750227  0.84095956     0.37260
N5259       N  0.29317214  0.85417760  0.84186022    -0.89320
H5260       H  0.27848839  0.87555516  0.83935379     0.18370
H5261       H  0.32654055  0.88577109  0.83834834     0.18360
N5262       N  0.31184812  0.90706726  0.83458014    -0.88350
H5263       H  0.29559472  0.85018674  0.85112963     0.35740
H5264       H  0.29758236  0.84842667  0.83441819     0.40840
H5265       H  0.30423616  0.91407528  0.83381515     0.40460
H5266       H  0.31678971  0.90700578  0.82544558     0.35350
C5267       C  0.22155317  0.97205221  0.87222375    -0.26380
C5268       C  0.21536326  0.96687104  0.86088302    -0.14460
C5269       C  0.20169472  0.96942838  0.85884620     0.36170
C5270       C  0.19465987  0.97710142  0.86806055    -0.25830
C5271       C  0.20083675  0.98227491  0.87941807    -0.15070
C5272       C  0.21452413  0.97973937  0.88143562     0.37260
N5273       N  0.22174633  0.98526767  0.89236549    -0.89320
H5274       H  0.23202924  0.97027350  0.87385516     0.18370
H5275       H  0.18418179  0.97885572  0.86642231     0.18360
N5276       N  0.19450349  0.96392724  0.84788183    -0.88350
H5277       H  0.21843951  0.98097306  0.90120117     0.35740
H5278       H  0.22010691  0.99554607  0.89261976     0.40840
H5279       H  0.19606082  0.95363462  0.84768072     0.40460
H5280       H  0.19794384  0.96814253  0.83905732     0.35350
loop_ 
_geom_bond_atom_site_label_1 
_geom_bond_atom_site_label_2 
_geom_bond_distance 
_geom_bond_site_symmetry_2 
_ccdc_geom_bond_type 
N1            N2   1.319       .  A
N1            C5   1.344       .  A
N1           Cu9   2.061       .  S
N2            C3   1.341       .  A
N2           Cu8   2.056       .  S
C3            C4   1.382       .  A
C3            H6   1.082       .  S
C4            C5   1.385       .  A
C4         C5240   1.475       .  S
C5            H7   1.082       .  S
Cu8          N11   2.057       .  S
Cu9          N19   2.062       .  S
Cu10         N12   2.094       .  S
Cu10         N18   2.095       .  S
N11          N12   1.323       .  A
N11          C15   1.341       .  A
N12          C13   1.350       .  A
C13          C14   1.386       .  A
C13          H16   1.082       .  S
C14          C15   1.376       .  A
C14        C5254   1.472       .  S
C15          H17   1.082       .  S
N18          N19   1.323       .  A
N18          C22   1.348       .  A
N19          C20   1.342       .  A
C20          C21   1.381       .  A
C20          H23   1.080       .  S
C21          C22   1.389       .  A
C21        C5268   1.482       .  S
C22          H24   1.082       .  S
N25          N26   1.318       .  A
N25          C29   1.343       .  A
N25         Cu33   2.059       .  S
N26          C27   1.341       .  A
N26         Cu32   2.053       .  S
C27          C28   1.384       .  A
C27          H30   1.081       .  S
C28          C29   1.386       .  A
C28        C5212   1.477       .  S
C29          H31   1.082   1_545  S
Cu32         N35   2.053       .  S
Cu33         N43   2.061   1_545  S
Cu34         N36   2.098       .  S
Cu34         N42   2.098       .  S
N35          N36   1.323       .  A
N35          C39   1.340       .  A
N36          C37   1.351       .  A
C37          C38   1.387       .  A
C37          H40   1.082       .  S
C38          C39   1.375       .  A
C38        C5229   1.473       .  S
C39          H41   1.082       .  S
N42          N43   1.323   1_545  A
N42          C46   1.348   1_545  A
N43          C44   1.341       .  A
C44          C45   1.381       .  A
C44          H47   1.080       .  S
C45          C46   1.390       .  A
C45        C5271   1.484       .  S
C46          H48   1.082   1_565  S
N49          N50   1.319       .  A
N49          C53   1.345       .  A
N49         Cu57   2.060       .  S
N50          C51   1.341       .  A
N50         Cu56   2.056       .  S
C51          C52   1.381       .  A
C51          H54   1.082       .  S
C52          C53   1.382       .  A
C52        C5170   1.469       .  S
C53          H55   1.082       .  S
Cu56         N59   2.057       .  S
Cu57         N67   2.062       .  S
Cu58         N60   2.102       .  S
Cu58         N66   2.103       .  S
N59          N60   1.323       .  A
N59          C63   1.341       .  A
N60          C61   1.352       .  A
C61          C62   1.389       .  A
C61          H64   1.082       .  S
C62          C63   1.376       .  A
C62        C5184   1.477       .  S
C63          H65   1.082       .  S
N66          N67   1.323       .  A
N66          C70   1.349       .  A
N67          C68   1.341       .  A
C68          C69   1.382       .  A
C68          H71   1.081       .  S
C69          C70   1.392       .  A
C69        C5198   1.490       .  S
C70          H72   1.082       .  S
N73          N74   1.319   1_655  A
N73          C77   1.344       .  A
N73         Cu81   2.060       .  S
N74          C75   1.342       .  A
N74         Cu80   2.055       .  S
C75          C76   1.381   1_455  A
C75          H78   1.082       .  S
C76          C77   1.382       .  A
C76        C5142   1.469       .  S
C77          H79   1.082       .  S
Cu80         N83   2.056       .  S
Cu81         N91   2.061       .  S
Cu82         N84   2.099       .  S
Cu82         N90   2.100   1_455  S
N83          N84   1.323       .  A
N83          C87   1.340       .  A
N84          C85   1.351       .  A
C85          C86   1.390       .  A
C85          H88   1.082       .  S
C86          C87   1.378       .  A
C86        C5156   1.480       .  S
C87          H89   1.082       .  S
N90          N91   1.323       .  A
N90          C94   1.349       .  A
N91          C92   1.341       .  A
C92          C93   1.382       .  A
C92          H95   1.081       .  S
C93          C94   1.392       .  A
C93        C5201   1.489       .  S
C94          H96   1.082       .  S
C97          C98   1.411       .  A
C97         C102   1.411       .  A
C97        C5131   1.504       .  S
C98          C99   1.410       .  A
C98         H103   1.081       .  S
C99         C100   1.404       .  A
C99        C5226   1.491       .  S
C100        C101   1.399       .  A
C100        H104   1.083       .  S
C101        C102   1.397       .  A
C101       C5159   1.476       .  S
C102        H105   1.082       .  S
N106        N107   1.319       .  A
N106        C110   1.345       .  A
N106       Cu114   2.061       .  S
N107        C108   1.340       .  A
N107       Cu113   2.051       .  S
C108        C109   1.381       .  A
C108        H111   1.082       .  S
C109        C110   1.385       .  A
C109       C5086   1.473       .  S
C110        H112   1.082       .  S
Cu113       N116   2.052       .  S
Cu114       N124   2.063       .  S
Cu115       N117   2.100       .  S
Cu115       N123   2.102       .  S
N116        N117   1.323       .  A
N116        C120   1.340       .  A
N117        C118   1.352       .  A
C118        C119   1.389       .  A
C118        H121   1.082       .  S
C119        C120   1.375       .  A
C119       C5100   1.475       .  S
C120        H122   1.082       .  S
N123        N124   1.324       .  A
N123        C127   1.350       .  A
N124        C125   1.341       .  A
C125        C126   1.379       .  A
C125        H128   1.082       .  S
C126        C127   1.391       .  A
C126       C5114   1.485       .  S
C127        H129   1.082       .  S
N130        N131   1.319       .  A
N130        C134   1.344       .  A
N130       Cu138   2.057       .  S
N131        C132   1.341       .  A
N131       Cu137   2.053       .  S
C132        C133   1.381       .  A
C132        H135   1.082       .  S
C133        C134   1.384       .  A
C133       C5058   1.472       .  S
C134        H136   1.082       .  S
Cu137       N140   2.054       .  S
Cu138       N148   2.059       .  S
Cu139       N141   2.103       .  S
Cu139       N147   2.103       .  S
N140        N141   1.324       .  A
N140        C144   1.341       .  A
N141        C142   1.351       .  A
C142        C143   1.388       .  A
C142        H145   1.082       .  S
C143        C144   1.375       .  A
C143       C5072   1.474       .  S
C144        H146   1.082       .  S
N147        N148   1.324       .  A
N147        C151   1.350       .  A
N148        C149   1.341       .  A
C149        C150   1.378       .  A
C149        H152   1.082   1_655  S
C150        C151   1.391       .  A
C150       C5117   1.483   1_655  S
C151        H153   1.082       .  S
N154        N155   1.319       .  A
N154        C158   1.344       .  A
N154       Cu162   2.058       .  S
N155        C156   1.341       .  A
N155       Cu161   2.053       .  S
C156        C157   1.382       .  A
C156        H159   1.082       .  S
C157        C158   1.385       .  A
C157       C5016   1.474       .  S
C158        H160   1.082       .  S
Cu161       N164   2.054       .  S
Cu162       N172   2.059       .  S
Cu163       N165   2.103       .  S
Cu163       N171   2.104       .  S
N164        N165   1.323       .  A
N164        C168   1.341       .  A
N165        C166   1.352       .  A
C166        C167   1.389       .  A
C166        H169   1.082       .  S
C167        C168   1.375       .  A
C167       C5030   1.475       .  S
C168        H170   1.082       .  S
N171        N172   1.323       .  A
N171        C175   1.349       .  A
N172        C173   1.342       .  A
C173        C174   1.382       .  A
C173        H176   1.081       .  S
C174        C175   1.393       .  A
C174       C5044   1.489       .  S
C175        H177   1.082       .  S
N178        N179   1.316       .  A
N178        C182   1.343       .  A
N178       Cu186   2.053       .  S
N179        C180   1.341       .  A
N179       Cu185   2.056       .  S
C180        C181   1.387       .  A
C180        H183   1.082       .  S
C181        C182   1.387       .  A
C181       C4988   1.482       .  S
C182        H184   1.079       .  S
Cu185       N188   2.057       .  S
Cu186       N196   2.054       .  S
Cu187       N189   2.107       .  S
Cu187       N195   2.107       .  S
N188        N189   1.324       .  A
N188        C192   1.340       .  A
N189        C190   1.352       .  A
C190        C191   1.390       .  A
C190        H193   1.082       .  S
C191        C192   1.376       .  A
C191       C5002   1.479       .  S
C192        H194   1.082       .  S
N195        N196   1.321       .  A
N195        C199   1.350       .  A
N196        C197   1.339       .  A
C197        C198   1.383       .  A
C197        H200   1.076       .  S
C198        C199   1.398       .  A
C198       C5047   1.497       .  S
C199        H201   1.082       .  S
N202        N203   1.320       .  A
N202        C206   1.343       .  A
N202       Cu210   2.057       .  S
N203        C204   1.343       .  A
N203       Cu209   2.061       .  S
C204        C205   1.381       .  A
C204        H207   1.082       .  S
C205        C206   1.382       .  A
C205       C4949   1.471       .  S
C206        H208   1.082       .  S
Cu209       N212   2.063       .  S
Cu210       N220   2.058       .  S
Cu211       N213   2.097       .  S
Cu211       N219   2.097       .  S
N212        N213   1.324       .  A
N212        C216   1.342       .  A
N213        C214   1.350       .  A
C214        C215   1.386       .  A
C214        H217   1.082       .  S
C215        C216   1.376       .  A
C215       C4960   1.474       .  S
C216        H218   1.082       .  S
N219        N220   1.322       .  A
N219        C223   1.348       .  A
N220        C221   1.341       .  A
C221        C222   1.381       .  A
C221        H224   1.079       .  S
C222        C223   1.391       .  A
C222       C4974   1.485       .  S
C223        H225   1.082       .  S
N226        N227   1.318       .  A
N226        C230   1.343       .  A
N226       Cu234   2.056       .  S
N227        C228   1.342       .  A
N227       Cu233   2.056       .  S
C228        C229   1.384       .  A
C228        H231   1.082       .  S
C229        C230   1.384       .  A
C229       C4918   1.476       .  S
C230        H232   1.082       .  S
Cu233       N236   2.057       .  S
Cu234       N244   2.057       .  S
Cu235       N237   2.097       .  S
Cu235       N243   2.097       .  S
N236        N237   1.324       .  A
N236        C240   1.340       .  A
N237        C238   1.351       .  A
C238        C239   1.387       .  A
C238        H241   1.082       .  S
C239        C240   1.375       .  A
C239       C4932   1.472       .  S
C240        H242   1.082       .  S
N243        N244   1.322       .  A
N243        C247   1.348       .  A
N244        C245   1.341       .  A
C245        C246   1.381       .  A
C245        H248   1.079       .  S
C246        C247   1.391       .  A
C246       C4977   1.486       .  S
C247        H249   1.082       .  S
C250        C251   1.407       .  A
C250        C255   1.402       .  A
C250       C4963   1.490       .  S
C251        C252   1.408       .  A
C251        H256   1.077       .  S
C252        C253   1.412       .  A
C252       C4907   1.505       .  S
C253        C254   1.404       .  A
C253        H257   1.082       .  S
C254        C255   1.403       .  A
C254       C5033   1.487       .  S
C255        H258   1.083       .  S
N259        N260   1.318       .  A
N259        C263   1.343       .  A
N259       Cu267   2.055       .  S
N260        C261   1.341       .  A
N260       Cu266   2.052       .  S
C261        C262   1.383       .  A
C261        H264   1.082       .  S
C262        C263   1.384       .  A
C262       C4862   1.474       .  S
C263        H265   1.082       .  S
Cu266       N269   2.052       .  S
Cu267       N277   2.057       .  S
Cu268       N270   2.098       .  S
Cu268       N276   2.099       .  S
N269        N270   1.319       .  A
N269        C273   1.336       .  A
N270        C271   1.350       .  A
C271        C272   1.400       .  A
C271        H274   1.077       .  S
C272        C273   1.387       .  A
C272       C4876   1.501       .  S
C273        H275   1.081       .  S
N276        N277   1.323       .  A
N276        C280   1.349       .  A
N277        C278   1.340       .  A
C278        C279   1.382       .  A
C278        H281   1.082       .  S
C279        C280   1.394       .  A
C279       C4890   1.490       .  S
C280        H282   1.081       .  S
N283        N284   1.318       .  A
N283        C287   1.344       .  A
N283       Cu291   2.056       .  S
N284        C285   1.341       .  A
N284       Cu290   2.049       .  S
C285        C286   1.380       .  A
C285        H288   1.082       .  S
C286        C287   1.383       .  A
C286       C4851   1.467       .  S
C287        H289   1.082   1_556  S
Cu290       N293   2.048       .  S
Cu291       N301   2.058       .  S
Cu292       N294   2.103       .  S
Cu292       N300   2.105       .  S
N293        N294   1.319       .  A
N293        C297   1.335       .  A
N294        C295   1.352       .  A
C295        C296   1.400       .  A
C295        H298   1.081       .  S
C296        C297   1.384       .  A
C296       C5128   1.500       .  S
C297        H299   1.074       .  S
N300        N301   1.323       .  A
N300        C304   1.350       .  A
N301        C302   1.339   1_556  A
C302        C303   1.382       .  A
C302        H305   1.081       .  S
C303        C304   1.395   1_554  A
C303       C4893   1.493       .  S
C304        H306   1.080       .  S
C307        C308   1.406       .  A
C307        C312   1.405       .  A
C307       C5103   1.490       .  S
C308        C309   1.406       .  A
C308        H313   1.082       .  S
C309        C310   1.406       .  A
C309       C4879   1.495       .  S
C310        C311   1.403       .  A
C310        H314   1.083       .  S
C311        C312   1.405       .  A
C311       C4935   1.490       .  S
C312        H315   1.080       .  S
N316        N317   1.317       .  A
N316        C320   1.345       .  A
N316       Cu324   2.060       .  S
N317        C318   1.340       .  A
N317       Cu323   2.046       .  S
C318        C319   1.379       .  A
C318        H321   1.082       .  S
C319        C320   1.385       .  A
C319       C4809   1.470       .  S
C320        H322   1.082       .  S
Cu323       N326   2.046       .  S
Cu324       N334   2.062       .  S
Cu325       N327   2.105       .  S
Cu325       N333   2.108       .  S
N326        N327   1.318       .  A
N326        C330   1.334       .  A
N327        C328   1.353       .  A
C328        C329   1.402       .  A
C328        H331   1.081       .  S
C329        C330   1.386       .  A
C329       C4820   1.505       .  S
C330        H332   1.072       .  S
N333        N334   1.325       .  A
N333        C337   1.350       .  A
N334        C335   1.340       .  A
C335        C336   1.378       .  A
C335        H338   1.081       .  S
C336        C337   1.390       .  A
C336       C4834   1.481       .  S
C337        H339   1.082       .  S
N340        N341   1.319       .  A
N340        C344   1.343   1_554  A
N340       Cu348   2.058   1_554  S
N341        C342   1.341       .  A
N341       Cu347   2.054       .  S
C342        C343   1.381       .  A
C342        H345   1.081       .  S
C343        C344   1.383   1_554  A
C343       C4795   1.470   1_554  S
C344        H346   1.082       .  S
Cu347       N350   2.055       .  S
Cu348       N358   2.060       .  S
Cu349       N351   2.100       .  S
Cu349       N357   2.100   1_554  S
N350        N351   1.323       .  A
N350        C354   1.341       .  A
N351        C352   1.351       .  A
C352        C353   1.388       .  A
C352        H355   1.082       .  S
C353        C354   1.377       .  A
C353       C4904   1.476       .  S
C354        H356   1.082       .  S
N357        N358   1.324       .  A
N357        C361   1.349       .  A
N358        C359   1.342       .  A
C359        C360   1.379       .  A
C359        H362   1.082       .  S
C360        C361   1.389       .  A
C360       C4837   1.480       .  S
C361        H363   1.082       .  S
N364        N365   1.319       .  A
N364        C368   1.346       .  A
N364       Cu372   2.062       .  S
N365        C366   1.339       .  A
N365       Cu371   2.049       .  S
C366        C367   1.380       .  A
C366        H369   1.082       .  S
C367        C368   1.385       .  A
C367       C4750   1.471       .  S
C368        H370   1.082       .  S
Cu371       N374   2.049       .  S
Cu372       N382   2.064       .  S
Cu373       N375   2.098       .  S
Cu373       N381   2.099       .  S
N374        N375   1.322       .  A
N374        C378   1.340       .  A
N375        C376   1.351       .  A
C376        C377   1.389       .  A
C376        H379   1.082       .  S
C377        C378   1.377       .  A
C377       C4764   1.477       .  S
C378        H380   1.082       .  S
N381        N382   1.324       .  A
N381        C385   1.349       .  A
N382        C383   1.341       .  A
C383        C384   1.380       .  A
C383        H386   1.082       .  S
C384        C385   1.390       .  A
C384       C4778   1.483       .  S
C385        H387   1.080       .  S
N388        N389   1.319       .  A
N388        C392   1.344       .  A
N388       Cu396   2.059       .  S
N389        C390   1.341       .  A
N389       Cu395   2.052       .  S
C390        C391   1.381       .  A
C390        H393   1.082       .  S
C391        C392   1.384       .  A
C391       C4722   1.473       .  S
C392        H394   1.082       .  S
Cu395       N398   2.053       .  S
Cu396       N406   2.061       .  S
Cu397       N399   2.097       .  S
Cu397       N405   2.097       .  S
N398        N399   1.323       .  A
N398        C402   1.340       .  A
N399        C400   1.350       .  A
C400        C401   1.389       .  A
C400        H403   1.082       .  S
C401        C402   1.376       .  A
C401       C4736   1.477       .  S
C402        H404   1.082       .  S
N405        N406   1.323       .  A
N405        C409   1.349       .  A
N406        C407   1.341       .  A
C407        C408   1.380       .  A
C407        H410   1.082       .  S
C408        C409   1.391       .  A
C408       C4781   1.485       .  S
C409        H411   1.080       .  S
C412        C413   1.410       .  A
C412        C417   1.411       .  A
C412       C4823   1.500       .  S
C413        C414   1.405       .  A
C413        H418   1.082       .  S
C414        C415   1.400       .  A
C414       C4767   1.476       .  S
C415        C416   1.401       .  A
C415        H419   1.084       .  S
C416        C417   1.401       .  A
C416       C5257   1.485       .  S
C417        H420   1.082       .  S
N421        N422   1.318       .  A
N421        C425   1.344       .  A
N421       Cu429   2.059       .  S
N422        C423   1.341       .  A
N422       Cu428   2.055       .  S
C423        C424   1.382       .  A
C423        H426   1.082       .  S
C424        C425   1.385       .  A
C424       C4680   1.474       .  S
C425        H427   1.082       .  S
Cu428       N431   2.055       .  S
Cu429       N439   2.060       .  S
Cu430       N432   2.101       .  S
Cu430       N438   2.102       .  S
N431        N432   1.321       .  A
N431        C435   1.339       .  A
N432        C433   1.352       .  A
C433        C434   1.395       .  A
C433        H436   1.081       .  S
C434        C435   1.382       .  A
C434       C4694   1.490       .  S
C435        H437   1.082       .  S
N438        N439   1.324       .  A
N438        C442   1.349       .  A
N439        C440   1.341       .  A
C440        C441   1.379       .  A
C440        H443   1.082       .  S
C441        C442   1.391       .  A
C441       C4708   1.483       .  S
C442        H444   1.080       .  S
N445        N446   1.318   1_545  A
N445        C449   1.346       .  A
N445       Cu453   2.062       .  S
N446        C447   1.340       .  A
N446       Cu452   2.051       .  S
C447        C448   1.380   1_565  A
C447        H450   1.082       .  S
C448        C449   1.383       .  A
C448       C4652   1.469       .  S
C449        H451   1.082       .  S
Cu452       N455   2.050       .  S
Cu453       N463   2.064       .  S
Cu454       N456   2.100       .  S
Cu454       N462   2.102   1_565  S
N455        N456   1.319       .  A
N455        C459   1.336       .  A
N456        C457   1.351       .  A
C457        C458   1.400       .  A
C457        H460   1.081       .  S
C458        C459   1.385       .  A
C458       C4666   1.501       .  S
C459        H461   1.073       .  S
N462        N463   1.325       .  A
N462        C466   1.350       .  A
N463        C464   1.340       .  A
C464        C465   1.379       .  A
C464        H467   1.082       .  S
C465        C466   1.391       .  A
C465       C4711   1.484       .  S
C466        H468   1.082       .  S
N469        N470   1.317       .  A
N469        C473   1.344       .  A
N469       Cu477   2.064       .  S
N470        C471   1.341       .  A
N470       Cu476   2.049       .  S
C471        C472   1.384       .  A
C471        H474   1.081       .  S
C472        C473   1.387       .  A
C472       C4610   1.479       .  S
C473        H475   1.082       .  S
Cu476       N479   2.050       .  S
Cu477       N487   2.066       .  S
Cu478       N480   2.100       .  S
Cu478       N486   2.101       .  S
N479        N480   1.322       .  A
N479        C483   1.338       .  A
N480        C481   1.352       .  A
C481        C482   1.394       .  A
C481        H484   1.081       .  S
C482        C483   1.380       .  A
C482       C4624   1.486       .  S
C483        H485   1.082       .  S
N486        N487   1.323       .  A
N486        C490   1.350       .  A
N487        C488   1.340       .  A
C488        C489   1.383       .  A
C488        H491   1.082       .  S
C489        C490   1.394       .  A
C489       C4638   1.492       .  S
C490        H492   1.081       .  S
N493        N494   1.320       .  A
N493        C497   1.345       .  A
N493       Cu501   2.068       .  S
N494        C495   1.341       .  A
N494       Cu500   2.055       .  S
C495        C496   1.382       .  A
C495        H498   1.081       .  S
C496        C497   1.385       .  A
C496       C4582   1.474       .  S
C497        H499   1.082       .  S
Cu500       N503   2.056       .  S
Cu501       N511   2.069       .  S
Cu502       N504   2.096       .  S
Cu502       N510   2.097       .  S
N503        N504   1.322       .  A
N503        C507   1.341       .  A
N504        C505   1.351       .  A
C505        C506   1.388       .  A
C505        H508   1.082       .  S
C506        C507   1.378       .  A
C506       C4596   1.476       .  S
C507        H509   1.082       .  S
N510        N511   1.322       .  A
N510        C514   1.347       .  A
N511        C512   1.343       .  A
C512        C513   1.386       .  A
C512        H515   1.082       .  S
C513        C514   1.394       .  A
C513       C4641   1.495       .  S
C514        H516   1.077       .  S
C517        C518   1.400       .  A
C517        C522   1.405       .  A
C517       C4739   1.476       .  S
C518        C519   1.401       .  A
C518        H523   1.084       .  S
C519        C520   1.400       .  A
C519       C4627   1.480       .  S
C520        C521   1.411       .  A
C520        H524   1.083       .  S
C521        C522   1.410       .  A
C521       C4669   1.499       .  S
C522        H525   1.082       .  S
N526        N527   1.319       .  A
N526        C530   1.344       .  A
N526       Cu534   2.058       .  S
N527        C528   1.341       .  A
N527       Cu533   2.054       .  S
C528        C529   1.382       .  A
C528        H531   1.082       .  S
C529        C530   1.385       .  A
C529       C4540   1.474       .  S
C530        H532   1.082       .  S
Cu533       N536   2.055       .  S
Cu534       N544   2.059       .  S
Cu535       N537   2.103       .  S
Cu535       N543   2.103       .  S
N536        N537   1.323       .  A
N536        C540   1.340       .  A
N537        C538   1.351       .  A
C538        C539   1.391       .  A
C538        H541   1.082       .  S
C539        C540   1.379       .  A
C539       C4554   1.483       .  S
C540        H542   1.082       .  S
N543        N544   1.324       .  A
N543        C547   1.350       .  A
N544        C545   1.341       .  A
C545        C546   1.379       .  A
C545        H548   1.081       .  S
C546        C547   1.390       .  A
C546       C4571   1.482       .  S
C547        H549   1.082       .  S
N550        N551   1.319       .  A
N550        C554   1.344       .  A
N550       Cu558   2.058       .  S
N551        C552   1.341       .  A
N551       Cu557   2.054       .  S
C552        C553   1.382       .  A
C552        H555   1.082       .  S
C553        C554   1.384       .  A
C553       C4512   1.473       .  S
C554        H556   1.082       .  S
Cu557       N560   2.054       .  S
Cu558       N568   2.059       .  S
Cu559       N561   2.100       .  S
Cu559       N567   2.101       .  S
N560        N561   1.323       .  A
N560        C564   1.341       .  A
N561        C562   1.351       .  A
C562        C563   1.388       .  A
C562        H565   1.082       .  S
C563        C564   1.376       .  A
C563       C4526   1.474       .  S
C564        H566   1.082       .  S
N567        N568   1.324       .  A
N567        C571   1.349       .  A
N568        C569   1.341       .  A
C569        C570   1.379       .  A
C569        H572   1.081       .  S
C570        C571   1.390       .  A
C570       C4568   1.481       .  S
C571        H573   1.082       .  S
N574        N575   1.319       .  A
N574        C578   1.344       .  A
N574       Cu582   2.062       .  S
N575        C576   1.341       .  A
N575       Cu581   2.058       .  S
C576        C577   1.384       .  A
C576        H579   1.082       .  S
C577        C578   1.386       .  A
C577       C4470   1.480       .  S
C578        H580   1.081       .  S
Cu581       N584   2.059       .  S
Cu582       N592   2.063       .  S
Cu583       N585   2.096       .  S
Cu583       N591   2.097       .  S
N584        N585   1.324       .  A
N584        C588   1.342       .  A
N585        C586   1.350       .  A
C586        C587   1.386       .  A
C586        H589   1.082       .  S
C587        C588   1.376       .  A
C587       C4484   1.473       .  S
C588        H590   1.082       .  S
N591        N592   1.324       .  A
N591        C595   1.349       .  A
N592        C593   1.342       .  A
C593        C594   1.378       .  A
C593        H596   1.082       .  S
C594        C595   1.387       .  A
C594       C4498   1.477       .  S
C595        H597   1.082       .  S
N598        N599   1.317       .  A
N598        C602   1.346       .  A
N598       Cu606   2.068       .  S
N599        C600   1.339       .  A
N599       Cu605   2.045       .  S
C600        C601   1.381       .  A
C600        H603   1.080       .  S
C601        C602   1.387       .  A
C601       C4442   1.476       .  S
C602        H604   1.082       .  S
Cu605       N608   2.045       .  S
Cu606       N616   2.071       .  S
Cu607       N609   2.101       .  S
Cu607       N615   2.104       .  S
N608        N609   1.318       .  A
N608        C612   1.335       .  A
N609        C610   1.353       .  A
C610        C611   1.399       .  A
C610        H613   1.082       .  S
C611        C612   1.384       .  A
C611       C4456   1.498       .  S
C612        H614   1.074       .  S
N615        N616   1.327       .  A
N615        C619   1.350       .  A
N616        C617   1.342       .  A
C617        C618   1.377       .  A
C617        H620   1.082       .  S
C618        C619   1.386       .  A
C618       C4501   1.477       .  S
C619        H621   1.082       .  S
C622        C623   1.402       .  A
C622        C627   1.406       .  A
C622       C5075   1.483       .  S
C623        C624   1.404       .  A
C623        H628   1.084       .  S
C624        C625   1.402       .  A
C624       C4529   1.491       .  S
C625        C626   1.411       .  A
C625        H629   1.081       .  S
C626        C627   1.409       .  A
C626       C4459   1.501       .  S
C627        H630   1.082       .  S
C631        C632   1.403       .  A
C631        C636   1.404       .  A
C631       C4599   1.479       .  S
C632        C633   1.403       .  A
C632        H637   1.084       .  S
C633        C634   1.401       .  A
C633       C5005   1.477       .  S
C634        C635   1.406       .  A
C634        H638   1.084       .  S
C635        C636   1.405       .  A
C635       C4487   1.485       .  S
C636        H639   1.083       .  S
C640        C641   1.409       .  A
C640        C645   1.408       .  A
C640       C5187   1.495       .  S
C641        C642   1.406       .  A
C641        H646   1.084       .  S
C642        C643   1.401       .  A
C642       C4697   1.481       .  S
C643        C644   1.401       .  A
C643        H647   1.084       .  S
C644        C645   1.403       .  A
C644       C4557   1.478       .  S
C645        H648   1.081       .  S
N649        N650   1.319       .  A
N649        C653   1.344       .  A
N649       Cu657   2.059       .  S
N650        C651   1.341       .  A
N650       Cu656   2.057       .  S
C651        C652   1.382       .  A
C651        H654   1.082       .  S
C652        C653   1.384       .  A
C652       C4806   1.474       .  S
C653        H655   1.082       .  S
Cu656       N659   2.057       .  S
Cu657       N667   2.060       .  S
Cu658       N660   2.104       .  S
Cu658       N666   2.105       .  S
N659        N660   1.323       .  A
N659        C663   1.341       .  A
N660        C661   1.352       .  A
C661        C662   1.389       .  A
C661        H664   1.082       .  S
C662        C663   1.376       .  A
C662       C4414   1.477       .  S
C663        H665   1.082       .  S
N666        N667   1.322       .  A
N666        C670   1.349       .  A
N667        C668   1.342       .  A
C668        C669   1.383       .  A
C668        H671   1.077       .  S
C669        C670   1.394       .  A
C669       C4428   1.493       .  S
C670        H672   1.082       .  S
N673        N674   1.319       .  A
N673        C677   1.343   1_554  A
N673       Cu681   2.056   1_554  S
N674        C675   1.342       .  A
N674       Cu680   2.053       .  S
C675        C676   1.381       .  A
C675        H678   1.082       .  S
C676        C677   1.381   1_554  A
C676       C4389   1.467   1_454  S
C677        H679   1.082       .  S
Cu680       N683   2.053       .  S
Cu681       N691   2.057       .  S
Cu682       N684   2.106       .  S
Cu682       N690   2.107   1_554  S
N683        N684   1.322       .  A
N683        C687   1.339       .  A
N684        C685   1.352       .  A
C685        C686   1.393       .  A
C685        H688   1.082       .  S
C686        C687   1.379       .  A
C686       C4403   1.485       .  S
C687        H689   1.080       .  S
N690        N691   1.321       .  A
N690        C694   1.350       .  A
N691        C692   1.340       .  A
C692        C693   1.384       .  A
C692        H695   1.076       .  S
C693        C694   1.397       .  A
C693       C4431   1.498       .  S
C694        H696   1.082       .  S
C697        C698   1.406       .  A
C697        C702   1.405       .  A
C697       C4361   1.487       .  S
C698        C699   1.403       .  A
C698        H703   1.083       .  S
C699        C700   1.403       .  A
C699       C4400   1.480       .  S
C700        C701   1.401       .  A
C700        H704   1.084       .  S
C701        C702   1.403       .  A
C701       C4375   1.478       .  S
C702        H705   1.084       .  S
N706        N707   1.319       .  A
N706        C710   1.345       .  A
N706       Cu714   2.060       .  S
N707        C708   1.341       .  A
N707       Cu713   2.050       .  S
C708        C709   1.379       .  A
C708        H711   1.082       .  S
C709        C710   1.382       .  A
C709       C4316   1.467       .  S
C710        H712   1.082       .  S
Cu713       N716   2.050       .  S
Cu714       N724   2.061       .  S
Cu715       N717   2.102       .  S
Cu715       N723   2.103       .  S
N716        N717   1.322       .  A
N716        C720   1.339       .  A
N717        C718   1.352       .  A
C718        C719   1.393       .  A
C718        H721   1.082       .  S
C719        C720   1.378       .  A
C719       C4330   1.484       .  S
C720        H722   1.082       .  S
N723        N724   1.325       .  A
N723        C727   1.350       .  A
N724        C725   1.341       .  A
C725        C726   1.378       .  A
C725        H728   1.082       .  S
C726        C727   1.389       .  A
C726       C4344   1.481       .  S
C727        H729   1.082       .  S
N730        N731   1.319       .  A
N730        C734   1.343       .  A
N730       Cu738   2.057       .  S
N731        C732   1.342       .  A
N731       Cu737   2.058       .  S
C732        C733   1.382       .  A
C732        H735   1.082       .  S
C733        C734   1.384       .  A
C733       C4288   1.474       .  S
C734        H736   1.082       .  S
Cu737       N740   2.059       .  S
Cu738       N748   2.058       .  S
Cu739       N741   2.099       .  S
Cu739       N747   2.099       .  S
N740        N741   1.324       .  A
N740        C744   1.342       .  A
N741        C742   1.350       .  A
C742        C743   1.387       .  A
C742        H745   1.082       .  S
C743        C744   1.376       .  A
C743       C4302   1.474       .  S
C744        H746   1.082       .  S
N747        N748   1.324       .  A
N747        C751   1.350       .  A
N748        C749   1.341   1_655  A
C749        C750   1.378       .  A
C749        H752   1.082       .  S
C750        C751   1.389   1_455  A
C750       C4347   1.479       .  S
C751        H753   1.082       .  S
N754        N755   1.318       .  A
N754        C758   1.343       .  A
N754       Cu762   2.061       .  S
N755        C756   1.342       .  A
N755       Cu761   2.054       .  S
C756        C757   1.385       .  A
C756        H759   1.081       .  S
C757        C758   1.386       .  A
C757       C4246   1.480       .  S
C758        H760   1.082       .  S
Cu761       N764   2.055       .  S
Cu762       N772   2.063       .  S
Cu763       N765   2.094       .  S
Cu763       N771   2.095       .  S
N764        N765   1.323       .  A
N764        C768   1.341       .  A
N765        C766   1.350       .  A
C766        C767   1.386       .  A
C766        H769   1.082       .  S
C767        C768   1.375       .  A
C767       C4260   1.471       .  S
C768        H770   1.082       .  S
N771        N772   1.324       .  A
N771        C775   1.348       .  A
N772        C773   1.342       .  A
C773        C774   1.380       .  A
C773        H776   1.082       .  S
C774        C775   1.389       .  A
C774       C4274   1.483       .  S
C775        H777   1.082       .  S
N778        N779   1.319       .  A
N778        C782   1.344       .  A
N778       Cu786   2.061       .  S
N779        C780   1.341       .  A
N779       Cu785   2.058       .  S
C780        C781   1.384       .  A
C780        H783   1.082       .  S
C781        C782   1.386       .  A
C781       C4946   1.480       .  S
C782        H784   1.081       .  S
Cu785       N788   2.059       .  S
Cu786       N796   2.063       .  S
Cu787       N789   2.094       .  S
Cu787       N795   2.095       .  S
N788        N789   1.323       .  A
N788        C792   1.341       .  A
N789        C790   1.350       .  A
C790        C791   1.386       .  A
C790        H793   1.082       .  S
C791        C792   1.376       .  A
C791       C4232   1.473       .  S
C792        H794   1.082       .  S
N795        N796   1.324       .  A
N795        C799   1.348       .  A
N796        C797   1.342       .  A
C797        C798   1.379       .  A
C797        H800   1.082       .  S
C798        C799   1.389       .  A
C798       C4277   1.481       .  S
C799        H801   1.082       .  S
N802        N803   1.318       .  A
N802        C806   1.343       .  A
N802       Cu810   2.060       .  S
N803        C804   1.342       .  A
N803       Cu809   2.055       .  S
C804        C805   1.385       .  A
C804        H807   1.081       .  S
C805        C806   1.386       .  A
C805       C4190   1.479       .  S
C806        H808   1.082       .  S
Cu809       N812   2.056       .  S
Cu810       N820   2.061       .  S
Cu811       N813   2.101       .  S
Cu811       N819   2.102       .  S
N812        N813   1.321       .  A
N812        C816   1.339       .  A
N813        C814   1.352       .  A
C814        C815   1.395       .  A
C814        H817   1.081       .  S
C815        C816   1.382       .  A
C815       C4204   1.492       .  S
C816        H818   1.082       .  S
N819        N820   1.321       .  A
N819        C823   1.349       .  A
N820        C821   1.340       .  A
C821        C822   1.387       .  A
C821        H824   1.081       .  S
C822        C823   1.399       .  A
C822       C4221   1.502       .  S
C823        H825   1.077       .  S
N826        N827   1.319       .  A
N826        C830   1.344       .  A
N826       Cu834   2.057       .  S
N827        C828   1.342       .  A
N827       Cu833   2.056       .  S
C828        C829   1.381       .  A
C828        H831   1.082       .  S
C829        C830   1.383       .  A
C829       C4165   1.471       .  S
C830        H832   1.082       .  S
Cu833       N836   2.057       .  S
Cu834       N844   2.058       .  S
Cu835       N837   2.103       .  S
Cu835       N843   2.104       .  S
N836        N837   1.323       .  A
N836        C840   1.340       .  A
N837        C838   1.352       .  A
C838        C839   1.392       .  A
C838        H841   1.082       .  S
C839        C840   1.380       .  A
C839       C4176   1.487       .  S
C840        H842   1.081       .  S
N843        N844   1.321       .  A
N843        C847   1.350       .  A
N844        C845   1.339       .  A
C845        C846   1.387       .  A
C845        H848   1.080       .  S
C846        C847   1.400       .  A
C846       C4218   1.504       .  S
C847        H849   1.077       .  S
C850        C851   1.405       .  A
C850        C855   1.407       .  A
C850       C4148   1.488       .  S
C851        C852   1.406       .  A
C851        H856   1.082       .  S
C852        C853   1.404       .  A
C852       C4235   1.487       .  S
C853        C854   1.404       .  A
C853        H857   1.084       .  S
C854        C855   1.403       .  A
C854       C4207   1.483       .  S
C855        H858   1.084       .  S
C859        C860   1.410       .  A
C859        C864   1.409       .  A
C859       C4417   1.497       .  S
C860        C861   1.403       .  A
C860        H865   1.084       .  S
C861        C862   1.397       .  A
C861       C4333   1.477       .  S
C862        C863   1.403       .  A
C862        H866   1.084       .  S
C863        C864   1.407       .  A
C863       C4263   1.487       .  S
C864        H867   1.079       .  S
N868        N869   1.319       .  A
N868        C872   1.345       .  A
N868       Cu876   2.063       .  S
N869        C870   1.340       .  A
N869       Cu875   2.051       .  S
C870        C871   1.380       .  A
C870        H873   1.082       .  S
C871        C872   1.385       .  A
C871       C4106   1.473       .  S
C872        H874   1.082       .  S
Cu875       N878   2.051       .  S
Cu876       N886   2.065       .  S
Cu877       N879   2.094       .  S
Cu877       N885   2.096       .  S
N878        N879   1.322       .  A
N878        C882   1.340       .  A
N879        C880   1.350       .  A
C880        C881   1.390       .  A
C880        H883   1.082       .  S
C881        C882   1.377       .  A
C881       C4120   1.479       .  S
C882        H884   1.082       .  S
N885        N886   1.325       .  A
N885        C889   1.349       .  A
N886        C887   1.342       .  A
C887        C888   1.375       .  A
C887        H890   1.082       .  S
C888        C889   1.384       .  A
C888       C4134   1.471       .  S
C889        H891   1.082       .  S
N892        N893   1.319   1_655  A
N892        C896   1.344       .  A
N892       Cu900   2.060       .  S
N893        C894   1.342       .  A
N893       Cu899   2.057       .  S
C894        C895   1.383   1_455  A
C894        H897   1.082       .  S
C895        C896   1.384       .  A
C895       C4092   1.475       .  S
C896        H898   1.082       .  S
Cu899       N902   2.058       .  S
Cu900       N910   2.061       .  S
Cu901       N903   2.096       .  S
Cu901       N909   2.096   1_455  S
N902        N903   1.322       .  A
N902        C906   1.340       .  A
N903        C904   1.350       .  A
C904        C905   1.392       .  A
C904        H907   1.082       .  S
C905        C906   1.381       .  A
C905       C4372   1.486       .  S
C906        H908   1.082       .  S
N909        N910   1.325       .  A
N909        C913   1.349       .  A
N910        C911   1.342       .  A
C911        C912   1.375       .  A
C911        H914   1.082       .  S
C912        C913   1.385       .  A
C912       C4137   1.471       .  S
C913        H915   1.082       .  S
N916        N917   1.317       .  A
N916        C920   1.345       .  A
N916       Cu924   2.057       .  S
N917        C918   1.340       .  A
N917       Cu923   2.048       .  S
C918        C919   1.382       .  A
C918        H921   1.082       .  S
C919        C920   1.385       .  A
C919       C4865   1.473       .  S
C920        H922   1.082       .  S
Cu923       N926   2.048       .  S
Cu924       N934   2.059       .  S
Cu925       N927   2.110       .  S
Cu925       N933   2.112       .  S
N926        N927   1.319       .  A
N926        C930   1.336       .  A
N927        C928   1.353       .  A
C928        C929   1.401       .  A
C928        H931   1.081       .  S
C929        C930   1.385       .  A
C929       C4064   1.503       .  S
C930        H932   1.074       .  S
N933        N934   1.325       .  A
N933        C937   1.351       .  A
N934        C935   1.340       .  A
C935        C936   1.378       .  A
C935        H938   1.081       .  S
C936        C937   1.391       .  A
C936       C4081   1.482       .  S
C937        H939   1.082       .  S
N940        N941   1.320       .  A
N940        C944   1.345       .  A
N940       Cu948   2.060       .  S
N941        C942   1.342       .  A
N941       Cu947   2.056       .  S
C942        C943   1.379       .  A
C942        H945   1.082       .  S
C943        C944   1.381       .  A
C943       C4050   1.465       .  S
C944        H946   1.082   1_556  S
Cu947       N950   2.056       .  S
Cu948       N958   2.061       .  S
Cu949       N951   2.102       .  S
Cu949       N957   2.103       .  S
N950        N951   1.324       .  A
N950        C954   1.341       .  A
N951        C952   1.351       .  A
C952        C953   1.388       .  A
C952        H955   1.082       .  S
C953        C954   1.375       .  A
C953       C4151   1.474       .  S
C954        H956   1.082       .  S
N957        N958   1.324       .  A
N957        C961   1.350       .  A
N958        C959   1.341   1_556  A
C959        C960   1.379       .  A
C959        H962   1.081       .  S
C960        C961   1.390   1_554  A
C960       C4078   1.482       .  S
C961        H963   1.082       .  S
N964        N965   1.318       .  A
N964        C968   1.343       .  A
N964       Cu972   2.057       .  S
N965        C966   1.342       .  A
N965       Cu971   2.055       .  S
C966        C967   1.385       .  A
C966        H969   1.081       .  S
C967        C968   1.385       .  A
C967       C4008   1.479       .  S
C968        H970   1.082       .  S
Cu971       N974   2.056       .  S
Cu972       N982   2.058       .  S
Cu973       N975   2.098       .  S
Cu973       N981   2.098       .  S
N974        N975   1.324       .  A
N974        C978   1.340       .  A
N975        C976   1.351       .  A
C976        C977   1.387       .  A
C976        H979   1.082       .  S
C977        C978   1.375       .  A
C977       C4022   1.472       .  S
C978        H980   1.082       .  S
N981        N982   1.323       .  A
N981        C985   1.349       .  A
N982        C983   1.341       .  A
C983        C984   1.381       .  A
C983        H986   1.081       .  S
C984        C985   1.391       .  A
C984       C4036   1.486       .  S
C985        H987   1.082       .  S
N988        N989   1.319       .  A
N988        C992   1.342   1_565  A
N988       Cu996   2.054   1_565  S
N989        C990   1.342       .  A
N989       Cu995   2.058       .  S
C990        C991   1.383       .  A
C990        H993   1.082       .  S
C991        C992   1.382   1_565  A
C991       C5215   1.473       .  S
C992        H994   1.082       .  S
Cu995       N998   2.059       .  S
Cu996      N1006   2.055       .  S
Cu997       N999   2.098       .  S
Cu997      N1005   2.098   1_565  S
N998        N999   1.324       .  A
N998       C1002   1.341       .  A
N999       C1000   1.351       .  A
C1000      C1001   1.387       .  A
C1000      H1003   1.082       .  S
C1001      C1002   1.375       .  A
C1001      C4358   1.473       .  S
C1002      H1004   1.082       .  S
N1005      N1006   1.322       .  A
N1005      C1009   1.349       .  A
N1006      C1007   1.340       .  A
C1007      C1008   1.381       .  A
C1007      H1010   1.081       .  S
C1008      C1009   1.391       .  A
C1008      C4039   1.485       .  S
C1009      H1011   1.082       .  S
N1012      N1013   1.318       .  A
N1012      C1016   1.344       .  A
N1012     Cu1020   2.061       .  S
N1013      C1014   1.341       .  A
N1013     Cu1019   2.052       .  S
C1014      C1015   1.383       .  A
C1014      H1017   1.082       .  S
C1015      C1016   1.385       .  A
C1015      C3966   1.476       .  S
C1016      H1018   1.082       .  S
Cu1019     N1022   2.052       .  S
Cu1020     N1030   2.063       .  S
Cu1021     N1023   2.094       .  S
Cu1021     N1029   2.095       .  S
N1022      N1023   1.323       .  A
N1022      C1026   1.340       .  A
N1023      C1024   1.350       .  A
C1024      C1025   1.388       .  A
C1024      H1027   1.082       .  S
C1025      C1026   1.377       .  A
C1025      C3980   1.476       .  S
C1026      H1028   1.082       .  S
N1029      N1030   1.324       .  A
N1029      C1033   1.349       .  A
N1030      C1031   1.342       .  A
C1031      C1032   1.379       .  A
C1031      H1034   1.082       .  S
C1032      C1033   1.387       .  A
C1032      C3997   1.478       .  S
C1033      H1035   1.082       .  S
N1036      N1037   1.319       .  A
N1036      C1040   1.344       .  A
N1036     Cu1044   2.058       .  S
N1037      C1038   1.341       .  A
N1037     Cu1043   2.058       .  S
C1038      C1039   1.383       .  A
C1038      H1041   1.082       .  S
C1039      C1040   1.385       .  A
C1039      C4543   1.476       .  S
C1040      H1042   1.080       .  S
Cu1043     N1046   2.059       .  S
Cu1044     N1054   2.059       .  S
Cu1045     N1047   2.096       .  S
Cu1045     N1053   2.096       .  S
N1046      N1047   1.323       .  A
N1046      C1050   1.342       .  A
N1047      C1048   1.350       .  A
C1048      C1049   1.387       .  A
C1048      H1051   1.082       .  S
C1049      C1050   1.376       .  A
C1049      C3952   1.475       .  S
C1050      H1052   1.082       .  S
N1053      N1054   1.324       .  A
N1053      C1057   1.349       .  A
N1054      C1055   1.341       .  A
C1055      C1056   1.379       .  A
C1055      H1058   1.082       .  S
C1056      C1057   1.388       .  A
C1056      C3994   1.478       .  S
C1057      H1059   1.082       .  S
N1060      N1061   1.318       .  A
N1060      C1064   1.343       .  A
N1060     Cu1068   2.061       .  S
N1061      C1062   1.342       .  A
N1061     Cu1067   2.054       .  S
C1062      C1063   1.383       .  A
C1062      H1065   1.081       .  S
C1063      C1064   1.384       .  A
C1063      C3913   1.474       .  S
C1064      H1066   1.082       .  S
Cu1067     N1070   2.055       .  S
Cu1068     N1078   2.062       .  S
Cu1069     N1071   2.094       .  S
Cu1069     N1077   2.094       .  S
N1070      N1071   1.322       .  A
N1070      C1074   1.340       .  A
N1071      C1072   1.350       .  A
C1072      C1073   1.390       .  A
C1072      H1075   1.082       .  S
C1073      C1074   1.379       .  A
C1073      C3924   1.481       .  S
C1074      H1076   1.082       .  S
N1077      N1078   1.323       .  A
N1077      C1081   1.348       .  A
N1078      C1079   1.342       .  A
C1079      C1080   1.382       .  A
C1079      H1082   1.082       .  S
C1080      C1081   1.391       .  A
C1080      C3938   1.487       .  S
C1081      H1083   1.081       .  S
N1084      N1085   1.317       .  A
N1084      C1088   1.345       .  A
N1084     Cu1092   2.060       .  S
N1085      C1086   1.339       .  A
N1085     Cu1091   2.055       .  S
C1086      C1087   1.386       .  A
C1086      H1089   1.082       .  S
C1087      C1088   1.388       .  A
C1087      C3882   1.482       .  S
C1088      H1090   1.079       .  S
Cu1091     N1094   2.056       .  S
Cu1092     N1102   2.061       .  S
Cu1093     N1095   2.096       .  S
Cu1093     N1101   2.097       .  S
N1094      N1095   1.323       .  A
N1094      C1098   1.341       .  A
N1095      C1096   1.350       .  A
C1096      C1097   1.387       .  A
C1096      H1099   1.082       .  S
C1097      C1098   1.375       .  A
C1097      C3896   1.472       .  S
C1098      H1100   1.082       .  S
N1101      N1102   1.323       .  A
N1101      C1105   1.349       .  A
N1102      C1103   1.340       .  A
C1103      C1104   1.382       .  A
C1103      H1106   1.082       .  S
C1104      C1105   1.392       .  A
C1104      C3941   1.488       .  S
C1105      H1107   1.081       .  S
C1108      C1109   1.406       .  A
C1108      C1113   1.405       .  A
C1108      C4067   1.489       .  S
C1109      C1110   1.403       .  A
C1109      H1114   1.084       .  S
C1110      C1111   1.403       .  A
C1110      C4025   1.486       .  S
C1111      C1112   1.403       .  A
C1111      H1115   1.083       .  S
C1112      C1113   1.406       .  A
C1112      C3899   1.481       .  S
C1113      H1116   1.083       .  S
C1117      C1118   1.401       .  A
C1117      C1122   1.403       .  A
C1117      C3927   1.474       .  S
C1118      C1119   1.401       .  A
C1118      H1123   1.084       .  S
C1119      C1120   1.401       .  A
C1119      C3983   1.474       .  S
C1120      C1121   1.406       .  A
C1120      H1124   1.084       .  S
C1121      C1122   1.405       .  A
C1121      C3868   1.486       .  S
C1122      H1125   1.084       .  S
N1126      N1127   1.319       .  A
N1126      C1130   1.345       .  A
N1126     Cu1134   2.062       .  S
N1127      C1128   1.340       .  A
N1127     Cu1133   2.054       .  S
C1128      C1129   1.381       .  A
C1128      H1131   1.082       .  S
C1129      C1130   1.385       .  A
C1129      C3826   1.473       .  S
C1130      H1132   1.082       .  S
Cu1133     N1136   2.054       .  S
Cu1134     N1144   2.064       .  S
Cu1135     N1137   2.093       .  S
Cu1135     N1143   2.093       .  S
N1136      N1137   1.323       .  A
N1136      C1140   1.341       .  A
N1137      C1138   1.350       .  A
C1138      C1139   1.386       .  A
C1138      H1141   1.082       .  S
C1139      C1140   1.375       .  A
C1139      C3840   1.471       .  S
C1140      H1142   1.082       .  S
N1143      N1144   1.323       .  A
N1143      C1147   1.348       .  A
N1144      C1145   1.341       .  A
C1145      C1146   1.381       .  A
C1145      H1148   1.082       .  S
C1146      C1147   1.390       .  A
C1146      C3854   1.484       .  S
C1147      H1149   1.080       .  S
N1150      N1151   1.319       .  A
N1150      C1154   1.346       .  A
N1150     Cu1158   2.066       .  S
N1151      C1152   1.339       .  A
N1151     Cu1157   2.058       .  S
C1152      C1153   1.386       .  A
C1152      H1155   1.081       .  S
C1153      C1154   1.389       .  A
C1153      C4655   1.485       .  S
C1154      H1156   1.081   1_545  S
Cu1157     N1160   2.058       .  S
Cu1158     N1168   2.068   1_545  S
Cu1159     N1161   2.087       .  S
Cu1159     N1167   2.088       .  S
N1160      N1161   1.322       .  A
N1160      C1164   1.342       .  A
N1161      C1162   1.349       .  A
C1162      C1163   1.386       .  A
C1162      H1165   1.082       .  S
C1163      C1164   1.377       .  A
C1163      C3871   1.473       .  S
C1164      H1166   1.082       .  S
N1167      N1168   1.323   1_545  A
N1167      C1171   1.347       .  A
N1168      C1169   1.342       .  A
C1169      C1170   1.382       .  A
C1169      H1172   1.082       .  S
C1170      C1171   1.389   1_565  A
C1170      C3857   1.484       .  S
C1171      H1173   1.080       .  S
C1174      C1175   1.404       .  A
C1174      C1179   1.405       .  A
C1174      C3843   1.485       .  S
C1175      C1176   1.400       .  A
C1175      H1180   1.083       .  S
C1176      C1177   1.401       .  A
C1176      C4123   1.475       .  S
C1177      C1178   1.404       .  A
C1177      H1181   1.084       .  S
C1178      C1179   1.407       .  A
C1178      C3812   1.488       .  S
C1179      H1182   1.084       .  S
N1183      N1184   1.320       .  A
N1183      C1187   1.345       .  A
N1183     Cu1191   2.065       .  S
N1184      C1185   1.341       .  A
N1184     Cu1190   2.057       .  S
C1185      C1186   1.381       .  A
C1185      H1188   1.082       .  S
C1186      C1187   1.385       .  A
C1186      C4585   1.474       .  S
C1187      H1189   1.082       .  S
Cu1190     N1193   2.058       .  S
Cu1191     N1201   2.066       .  S
Cu1192     N1194   2.092       .  S
Cu1192     N1200   2.093       .  S
N1193      N1194   1.323       .  A
N1193      C1197   1.342       .  A
N1194      C1195   1.349       .  A
C1195      C1196   1.386       .  A
C1195      H1198   1.082       .  S
C1196      C1197   1.376       .  A
C1196      C3815   1.472       .  S
C1197      H1199   1.082       .  S
N1200      N1201   1.324       .  A
N1200      C1204   1.348       .  A
N1201      C1202   1.342       .  A
C1202      C1203   1.381       .  A
C1202      H1205   1.082       .  S
C1203      C1204   1.389       .  A
C1203      C3798   1.483       .  S
C1204      H1206   1.082       .  S
N1207      N1208   1.318       .  A
N1207      C1211   1.344       .  A
N1207     Cu1215   2.060       .  S
N1208      C1209   1.340       .  A
N1208     Cu1214   2.057       .  S
C1209      C1210   1.384       .  A
C1209      H1212   1.082       .  S
C1210      C1211   1.386       .  A
C1210      C3770   1.477       .  S
C1211      H1213   1.080       .  S
Cu1214     N1217   2.058       .  S
Cu1215     N1225   2.062       .  S
Cu1216     N1218   2.096       .  S
Cu1216     N1224   2.097       .  S
N1217      N1218   1.322       .  A
N1217      C1221   1.340       .  A
N1218      C1219   1.351       .  A
C1219      C1220   1.392       .  A
C1219      H1222   1.082       .  S
C1220      C1221   1.380       .  A
C1220      C3784   1.485       .  S
C1221      H1223   1.082       .  S
N1224      N1225   1.324       .  A
N1224      C1228   1.349       .  A
N1225      C1226   1.341       .  A
C1226      C1227   1.380       .  A
C1226      H1229   1.082       .  S
C1227      C1228   1.390       .  A
C1227      C3801   1.483       .  S
C1228      H1230   1.082       .  S
N1231      N1232   1.319       .  A
N1231      C1235   1.345       .  A
N1231     Cu1239   2.064       .  S
N1232      C1233   1.340       .  A
N1232     Cu1238   2.056       .  S
C1233      C1234   1.383       .  A
C1233      H1236   1.082       .  S
C1234      C1235   1.387       .  A
C1234      C4445   1.478       .  S
C1235      H1237   1.082       .  S
Cu1238     N1241   2.056       .  S
Cu1239     N1249   2.065       .  S
Cu1240     N1242   2.099       .  S
Cu1240     N1248   2.100       .  S
N1241      N1242   1.323       .  A
N1241      C1245   1.341       .  A
N1242      C1243   1.351       .  A
C1243      C1244   1.388       .  A
C1243      H1246   1.082       .  S
C1244      C1245   1.375       .  A
C1244      C3742   1.474       .  S
C1245      H1247   1.082       .  S
N1248      N1249   1.324       .  A
N1248      C1252   1.349       .  A
N1249      C1250   1.342       .  A
C1250      C1251   1.380       .  A
C1250      H1253   1.082       .  S
C1251      C1252   1.391       .  A
C1251      C3756   1.485       .  S
C1252      H1254   1.082       .  S
N1255      N1256   1.318       .  A
N1255      C1259   1.344       .  A
N1255     Cu1263   2.059       .  S
N1256      C1257   1.340       .  A
N1256     Cu1262   2.055       .  S
C1257      C1258   1.384       .  A
C1257      H1260   1.082       .  S
C1258      C1259   1.386       .  A
C1258      C3714   1.479       .  S
C1259      H1261   1.081       .  S
Cu1262     N1265   2.056       .  S
Cu1263     N1273   2.061       .  S
Cu1264     N1266   2.102       .  S
Cu1264     N1272   2.103       .  S
N1265      N1266   1.323       .  A
N1265      C1269   1.342       .  A
N1266      C1267   1.351       .  A
C1267      C1268   1.388       .  A
C1267      H1270   1.082       .  S
C1268      C1269   1.376       .  A
C1268      C3728   1.476       .  S
C1269      H1271   1.082       .  S
N1272      N1273   1.324       .  A
N1272      C1276   1.350       .  A
N1273      C1274   1.341       .  A
C1274      C1275   1.379       .  A
C1274      H1277   1.082       .  S
C1275      C1276   1.391       .  A
C1275      C3759   1.485       .  S
C1276      H1278   1.082       .  S
C1279      C1280   1.410       .  A
C1279      C1284   1.409       .  A
C1279      C3731   1.498       .  S
C1280      C1281   1.401       .  A
C1280      H1285   1.084       .  S
C1281      C1282   1.400       .  A
C1281      C4179   1.481       .  S
C1282      C1283   1.405       .  A
C1282      H1286   1.084       .  S
C1283      C1284   1.410       .  A
C1283      C3955   1.495       .  S
C1284      H1287   1.077       .  S
C1288      C1289   1.402       .  A
C1288      C1293   1.400       .  A
C1288      C3787   1.478       .  S
C1289      C1290   1.405       .  A
C1289      H1294   1.082       .  S
C1290      C1291   1.408       .  A
C1290      C4305   1.490       .  S
C1291      C1292   1.406       .  A
C1291      H1295   1.084       .  S
C1292      C1293   1.405       .  A
C1292      C3745   1.486       .  S
C1293      H1296   1.084       .  S
N1297      N1298   1.316       .  A
N1297      C1301   1.347       .  A
N1297     Cu1305   2.064       .  S
N1298      C1299   1.338       .  A
N1298     Cu1304   2.043       .  S
C1299      C1300   1.383       .  A
C1299      H1302   1.082       .  S
C1300      C1301   1.390       .  A
C1300      C5173   1.481       .  S
C1301      H1303   1.081       .  S
Cu1304     N1307   2.043       .  S
Cu1305     N1315   2.067       .  S
Cu1306     N1308   2.104       .  S
Cu1306     N1314   2.107       .  S
N1307      N1308   1.318       .  A
N1307      C1311   1.335       .  A
N1308      C1309   1.353       .  A
C1309      C1310   1.400       .  A
C1309      H1312   1.082       .  S
C1310      C1311   1.383       .  A
C1310      C3686   1.498       .  S
C1311      H1313   1.074       .  S
N1314      N1315   1.325       .  A
N1314      C1318   1.350       .  A
N1315      C1316   1.340       .  A
C1316      C1317   1.382       .  A
C1316      H1319   1.082       .  S
C1317      C1318   1.393       .  A
C1317      C3700   1.491       .  S
C1318      H1320   1.081       .  S
N1321      N1322   1.318   1_655  A
N1321      C1325   1.345       .  A
N1321     Cu1329   2.062       .  S
N1322      C1323   1.340       .  A
N1322     Cu1328   2.054       .  S
C1323      C1324   1.382   1_455  A
C1323      H1326   1.082       .  S
C1324      C1325   1.386       .  A
C1324      C4291   1.477       .  S
C1325      H1327   1.080       .  S
Cu1328     N1331   2.054       .  S
Cu1329     N1339   2.063       .  S
Cu1330     N1332   2.094       .  S
Cu1330     N1338   2.095   1_455  S
N1331      N1332   1.323       .  A
N1331      C1335   1.341       .  A
N1332      C1333   1.350       .  A
C1333      C1334   1.386       .  A
C1333      H1336   1.082       .  S
C1334      C1335   1.375       .  A
C1334      C3672   1.471       .  S
C1335      H1337   1.082       .  S
N1338      N1339   1.323       .  A
N1338      C1342   1.348       .  A
N1339      C1340   1.341       .  A
C1340      C1341   1.384       .  A
C1340      H1343   1.082       .  S
C1341      C1342   1.393       .  A
C1341      C3703   1.491       .  S
C1342      H1344   1.081       .  S
N1345      N1346   1.317       .  A
N1345      C1349   1.344       .  A
N1345     Cu1353   2.055       .  S
N1346      C1347   1.340       .  A
N1346     Cu1352   2.057       .  S
C1347      C1348   1.386       .  A
C1347      H1350   1.082       .  S
C1348      C1349   1.387       .  A
C1348      C3630   1.480       .  S
C1349      H1351   1.079       .  S
Cu1352     N1355   2.058       .  S
Cu1353     N1363   2.056       .  S
Cu1354     N1356   2.100       .  S
Cu1354     N1362   2.101       .  S
N1355      N1356   1.323       .  A
N1355      C1359   1.341       .  A
N1356      C1357   1.351       .  A
C1357      C1358   1.389       .  A
C1357      H1360   1.082       .  S
C1358      C1359   1.378       .  A
C1358      C3644   1.478       .  S
C1359      H1361   1.082       .  S
N1362      N1363   1.323       .  A
N1362      C1366   1.349       .  A
N1363      C1364   1.341       .  A
C1364      C1365   1.380       .  A
C1364      H1367   1.081       .  S
C1365      C1366   1.391       .  A
C1365      C3658   1.485       .  S
C1366      H1368   1.082       .  S
N1369      N1370   1.317       .  A
N1369      C1373   1.344       .  A
N1369     Cu1377   2.055       .  S
N1370      C1371   1.340       .  A
N1370     Cu1376   2.044       .  S
C1371      C1372   1.381       .  A
C1371      H1374   1.082       .  S
C1372      C1373   1.384       .  A
C1372      C4792   1.470       .  S
C1373      H1375   1.082   1_556  S
Cu1376     N1379   2.044       .  S
Cu1377     N1387   2.057   1_556  S
Cu1378     N1380   2.107       .  S
Cu1378     N1386   2.109       .  S
N1379      N1380   1.317       .  A
N1379      C1383   1.334       .  A
N1380      C1381   1.352       .  A
C1381      C1382   1.406       .  A
C1381      H1384   1.080       .  S
C1382      C1383   1.389       .  A
C1382      C3616   1.512       .  S
C1383      H1385   1.071       .  S
N1386      N1387   1.325   1_556  A
N1386      C1390   1.351   1_556  A
N1387      C1388   1.339       .  A
C1388      C1389   1.379       .  A
C1388      H1391   1.081       .  S
C1389      C1390   1.392       .  A
C1389      C3661   1.486       .  S
C1390      H1392   1.082   1_554  S
N1393      N1394   1.319       .  A
N1393      C1397   1.344       .  A
N1393     Cu1401   2.058       .  S
N1394      C1395   1.341       .  A
N1394     Cu1400   2.052       .  S
C1395      C1396   1.379       .  A
C1395      H1398   1.082       .  S
C1396      C1397   1.383       .  A
C1396      C3717   1.468       .  S
C1397      H1399   1.082       .  S
Cu1400     N1403   2.053       .  S
Cu1401     N1411   2.059       .  S
Cu1402     N1404   2.102       .  S
Cu1402     N1410   2.102       .  S
N1403      N1404   1.323       .  A
N1403      C1407   1.340       .  A
N1404      C1405   1.351       .  A
C1405      C1406   1.390       .  A
C1405      H1408   1.082       .  S
C1406      C1407   1.375       .  A
C1406      C3588   1.477       .  S
C1407      H1409   1.082       .  S
N1410      N1411   1.324       .  A
N1410      C1414   1.350       .  A
N1411      C1412   1.341       .  A
C1412      C1413   1.379       .  A
C1412      H1415   1.080       .  S
C1413      C1414   1.390       .  A
C1413      C3602   1.482       .  S
C1414      H1416   1.082       .  S
N1417      N1418   1.319       .  A
N1417      C1421   1.344       .  A
N1417     Cu1425   2.060       .  S
N1418      C1419   1.341       .  A
N1418     Cu1424   2.052       .  S
C1419      C1420   1.381       .  A
C1419      H1422   1.081       .  S
C1420      C1421   1.383       .  A
C1420      C3560   1.471       .  S
C1421      H1423   1.082       .  S
Cu1424     N1427   2.053       .  S
Cu1425     N1435   2.061       .  S
Cu1426     N1428   2.100       .  S
Cu1426     N1434   2.101       .  S
N1427      N1428   1.323       .  A
N1427      C1431   1.340       .  A
N1428      C1429   1.352       .  A
C1429      C1430   1.390       .  A
C1429      H1432   1.082       .  S
C1430      C1431   1.376       .  A
C1430      C3577   1.477       .  S
C1431      H1433   1.082       .  S
N1434      N1435   1.324       .  A
N1434      C1438   1.349       .  A
N1435      C1436   1.342       .  A
C1436      C1437   1.380       .  A
C1436      H1439   1.080       .  S
C1437      C1438   1.390       .  A
C1437      C3605   1.483       .  S
C1438      H1440   1.082       .  S
C1441      C1442   1.412       .  A
C1441      C1446   1.415       .  A
C1441      C3689   1.505       .  S
C1442      C1443   1.405       .  A
C1442      H1447   1.081       .  S
C1443      C1444   1.398       .  A
C1443      C3591   1.476       .  S
C1444      C1445   1.399       .  A
C1444      H1448   1.084       .  S
C1445      C1446   1.401       .  A
C1445      C3546   1.481       .  S
C1446      H1449   1.082       .  S
N1450      N1451   1.318       .  A
N1450      C1454   1.344       .  A
N1450     Cu1458   2.061       .  S
N1451      C1452   1.342       .  A
N1451     Cu1457   2.054       .  S
C1452      C1453   1.384       .  A
C1452      H1455   1.082       .  S
C1453      C1454   1.386       .  A
C1453      C3518   1.479       .  S
C1454      H1456   1.082       .  S
Cu1457     N1460   2.055       .  S
Cu1458     N1468   2.062       .  S
Cu1459     N1461   2.102       .  S
Cu1459     N1467   2.103       .  S
N1460      N1461   1.322       .  A
N1460      C1464   1.339       .  A
N1461      C1462   1.351       .  A
C1462      C1463   1.393       .  A
C1462      H1465   1.082       .  S
C1463      C1464   1.380       .  A
C1463      C3549   1.486       .  S
C1464      H1466   1.079       .  S
N1467      N1468   1.323       .  A
N1467      C1471   1.349       .  A
N1468      C1469   1.341       .  A
C1469      C1470   1.383       .  A
C1469      H1472   1.078       .  S
C1470      C1471   1.393       .  A
C1470      C3535   1.490       .  S
C1471      H1473   1.082       .  S
N1474      N1475   1.319       .  A
N1474      C1478   1.343   1_554  A
N1474     Cu1482   2.059   1_554  S
N1475      C1476   1.342       .  A
N1475     Cu1481   2.056       .  S
C1476      C1477   1.384       .  A
C1476      H1479   1.082       .  S
C1477      C1478   1.384   1_554  A
C1477      C4848   1.476   1_554  S
C1478      H1480   1.082       .  S
Cu1481     N1484   2.057       .  S
Cu1482     N1492   2.060       .  S
Cu1483     N1485   2.102       .  S
Cu1483     N1491   2.103   1_554  S
N1484      N1485   1.324       .  A
N1484      C1488   1.341       .  A
N1485      C1486   1.351       .  A
C1486      C1487   1.388       .  A
C1486      H1489   1.082       .  S
C1487      C1488   1.377       .  A
C1487      C3507   1.477       .  S
C1488      H1490   1.082       .  S
N1491      N1492   1.323       .  A
N1491      C1495   1.349       .  A
N1492      C1493   1.342       .  A
C1493      C1494   1.382       .  A
C1493      H1496   1.078       .  S
C1494      C1495   1.392       .  A
C1494      C3532   1.489       .  S
C1495      H1497   1.082       .  S
N1498      N1499   1.317       .  A
N1498      C1502   1.343       .  A
N1498     Cu1506   2.053       .  S
N1499      C1500   1.341       .  A
N1499     Cu1505   2.052       .  S
C1500      C1501   1.382       .  A
C1500      H1503   1.082       .  S
C1501      C1502   1.384       .  A
C1501      C3829   1.473       .  S
C1502      H1504   1.081       .  S
Cu1505     N1508   2.051       .  S
Cu1506     N1516   2.054       .  S
Cu1507     N1509   2.112       .  S
Cu1507     N1515   2.114       .  S
N1508      N1509   1.321       .  A
N1508      C1512   1.336       .  A
N1509      C1510   1.354       .  A
C1510      C1511   1.399       .  A
C1510      H1513   1.082       .  S
C1511      C1512   1.382       .  A
C1511      C3476   1.497       .  S
C1512      H1514   1.075       .  S
N1515      N1516   1.324       .  A
N1515      C1519   1.352       .  A
N1516      C1517   1.339       .  A
C1517      C1518   1.379       .  A
C1517      H1520   1.081       .  S
C1518      C1519   1.395       .  A
C1518      C3490   1.489       .  S
C1519      H1521   1.082       .  S
N1522      N1523   1.315       .  A
N1522      C1526   1.344       .  A
N1522     Cu1530   2.055       .  S
N1523      C1524   1.339       .  A
N1523     Cu1529   2.049       .  S
C1524      C1525   1.386       .  A
C1524      H1527   1.082       .  S
C1525      C1526   1.389       .  A
C1525      C3451   1.482       .  S
C1526      H1528   1.079   1_545  S
Cu1529     N1532   2.050       .  S
Cu1530     N1540   2.057       .  S
Cu1531     N1533   2.114       .  S
Cu1531     N1539   2.115       .  S
N1532      N1533   1.320       .  A
N1532      C1536   1.337       .  A
N1533      C1534   1.354       .  A
C1534      C1535   1.400       .  A
C1534      H1537   1.082       .  S
C1535      C1536   1.382       .  A
C1535      C3465   1.498       .  S
C1536      H1538   1.075       .  S
N1539      N1540   1.325       .  A
N1539      C1543   1.352   1_545  A
N1540      C1541   1.340   1_545  A
C1541      C1542   1.378       .  A
C1541      H1544   1.081       .  S
C1542      C1543   1.393       .  A
C1542      C3493   1.487       .  S
C1543      H1545   1.082   1_565  S
C1546      C1547   1.407       .  A
C1546      C1551   1.408       .  A
C1546      C3504   1.497       .  S
C1547      C1548   1.405       .  A
C1547      H1552   1.083       .  S
C1548      C1549   1.403       .  A
C1548      C3462   1.485       .  S
C1549      C1550   1.406       .  A
C1549      H1553   1.084       .  S
C1550      C1551   1.405       .  A
C1550      C3434   1.487       .  S
C1551      H1554   1.083       .  S
C1555      C1556   1.407       .  A
C1555      C1560   1.409       .  A
C1555      C3479   1.502       .  S
C1556      C1557   1.409       .  A
C1556      H1561   1.082       .  S
C1557      C1558   1.407       .  A
C1557      C3647   1.495       .  S
C1558      C1559   1.407       .  A
C1558      H1562   1.081       .  S
C1559      C1560   1.404       .  A
C1559      C3420   1.495       .  S
C1560      H1563   1.083       .  S
N1564      N1565   1.319       .  A
N1564      C1568   1.344       .  A
N1564     Cu1572   2.058       .  S
N1565      C1566   1.341       .  A
N1565     Cu1571   2.055       .  S
C1566      C1567   1.380       .  A
C1566      H1569   1.082       .  S
C1567      C1568   1.381       .  A
C1567      C4991   1.468       .  S
C1568      H1570   1.082       .  S
Cu1571     N1574   2.056       .  S
Cu1572     N1582   2.060       .  S
Cu1573     N1575   2.099       .  S
Cu1573     N1581   2.100       .  S
N1574      N1575   1.323       .  A
N1574      C1578   1.341       .  A
N1575      C1576   1.351       .  A
C1576      C1577   1.389       .  A
C1576      H1579   1.082       .  S
C1577      C1578   1.376       .  A
C1577      C3423   1.476       .  S
C1578      H1580   1.082       .  S
N1581      N1582   1.323       .  A
N1581      C1585   1.349       .  A
N1582      C1583   1.341       .  A
C1583      C1584   1.381       .  A
C1583      H1586   1.081       .  S
C1584      C1585   1.391       .  A
C1584      C3406   1.486       .  S
C1585      H1587   1.082       .  S
N1588      N1589   1.318       .  A
N1588      C1592   1.343       .  A
N1588     Cu1596   2.057       .  S
N1589      C1590   1.341       .  A
N1589     Cu1595   2.054       .  S
C1590      C1591   1.383       .  A
C1590      H1593   1.082       .  S
C1591      C1592   1.384       .  A
C1591      C3910   1.474       .  S
C1592      H1594   1.082       .  S
Cu1595     N1598   2.055       .  S
Cu1596     N1606   2.058       .  S
Cu1597     N1599   2.101       .  S
Cu1597     N1605   2.101       .  S
N1598      N1599   1.323       .  A
N1598      C1602   1.339       .  A
N1599      C1600   1.351       .  A
C1600      C1601   1.392       .  A
C1600      H1603   1.082       .  S
C1601      C1602   1.378       .  A
C1601      C3392   1.484       .  S
C1602      H1604   1.082       .  S
N1605      N1606   1.323       .  A
N1605      C1609   1.350       .  A
N1606      C1607   1.341       .  A
C1607      C1608   1.380       .  A
C1607      H1610   1.082       .  S
C1608      C1609   1.391       .  A
C1608      C3409   1.485       .  S
C1609      H1611   1.082       .  S
N1612      N1613   1.318       .  A
N1612      C1616   1.346       .  A
N1612     Cu1620   2.062       .  S
N1613      C1614   1.339       .  A
N1613     Cu1619   2.048       .  S
C1614      C1615   1.380       .  A
C1614      H1617   1.082       .  S
C1615      C1616   1.386       .  A
C1615      C3350   1.473       .  S
C1616      H1618   1.082       .  S
Cu1619     N1622   2.049       .  S
Cu1620     N1630   2.064       .  S
Cu1621     N1623   2.101       .  S
Cu1621     N1629   2.102       .  S
N1622      N1623   1.321       .  A
N1622      C1626   1.338       .  A
N1623      C1624   1.352       .  A
C1624      C1625   1.393       .  A
C1624      H1627   1.082       .  S
C1625      C1626   1.380       .  A
C1625      C3364   1.486       .  S
C1626      H1628   1.081       .  S
N1629      N1630   1.325       .  A
N1629      C1633   1.350       .  A
N1630      C1631   1.342       .  A
C1631      C1632   1.378       .  A
C1631      H1634   1.082       .  S
C1632      C1633   1.387       .  A
C1632      C3378   1.478       .  S
C1633      H1635   1.082       .  S
N1636      N1637   1.320       .  A
N1636      C1640   1.344       .  A
N1636     Cu1644   2.061       .  S
N1637      C1638   1.342       .  A
N1637     Cu1643   2.060       .  S
C1638      C1639   1.383       .  A
C1638      H1641   1.082       .  S
C1639      C1640   1.384       .  A
C1639      C4613   1.475       .  S
C1640      H1642   1.082       .  S
Cu1643     N1646   2.061       .  S
Cu1644     N1654   2.062       .  S
Cu1645     N1647   2.097       .  S
Cu1645     N1653   2.097       .  S
N1646      N1647   1.324       .  A
N1646      C1650   1.342       .  A
N1647      C1648   1.350       .  A
C1648      C1649   1.387       .  A
C1648      H1651   1.082       .  S
C1649      C1650   1.377       .  A
C1649      C3336   1.475       .  S
C1650      H1652   1.082       .  S
N1653      N1654   1.324       .  A
N1653      C1657   1.350       .  A
N1654      C1655   1.342       .  A
C1655      C1656   1.378       .  A
C1655      H1658   1.082       .  S
C1656      C1657   1.387       .  A
C1656      C3381   1.478       .  S
C1657      H1659   1.082       .  S
C1660      C1661   1.406       .  A
C1660      C1665   1.412       .  A
C1660      C3322   1.497       .  S
C1661      C1662   1.401       .  A
C1661      H1666   1.083       .  S
C1662      C1663   1.399       .  A
C1662      C3395   1.477       .  S
C1663      C1664   1.406       .  A
C1663      H1667   1.084       .  S
C1664      C1665   1.408       .  A
C1664      C3339   1.493       .  S
C1665      H1668   1.080       .  S
N1669      N1670   1.320       .  A
N1669      C1673   1.344       .  A
N1669     Cu1677   2.062       .  S
N1670      C1671   1.342       .  A
N1670     Cu1676   2.057       .  S
C1671      C1672   1.381       .  A
C1671      H1674   1.082       .  S
C1672      C1673   1.381       .  A
C1672      C5089   1.470       .  S
C1673      H1675   1.082       .  S
Cu1676     N1679   2.058       .  S
Cu1677     N1687   2.063       .  S
Cu1678     N1680   2.099       .  S
Cu1678     N1686   2.099       .  S
N1679      N1680   1.323       .  A
N1679      C1683   1.342       .  A
N1680      C1681   1.351       .  A
C1681      C1682   1.387       .  A
C1681      H1684   1.082       .  S
C1682      C1683   1.376       .  A
C1682      C3294   1.474       .  S
C1683      H1685   1.082       .  S
N1686      N1687   1.322       .  A
N1686      C1690   1.348       .  A
N1687      C1688   1.342       .  A
C1688      C1689   1.385       .  A
C1688      H1691   1.080       .  S
C1689      C1690   1.393       .  A
C1689      C3308   1.493       .  S
C1690      H1692   1.082       .  S
N1693      N1694   1.318       .  A
N1693      C1697   1.343       .  A
N1693     Cu1701   2.062       .  S
N1694      C1695   1.342       .  A
N1694     Cu1700   2.053       .  S
C1695      C1696   1.383       .  A
C1695      H1698   1.081       .  S
C1696      C1697   1.385       .  A
C1696      C4095   1.475       .  S
C1697      H1699   1.082       .  S
Cu1700     N1703   2.054       .  S
Cu1701     N1711   2.063       .  S
Cu1702     N1704   2.104       .  S
Cu1702     N1710   2.105       .  S
N1703      N1704   1.324       .  A
N1703      C1707   1.340       .  A
N1704      C1705   1.352       .  A
C1705      C1706   1.389       .  A
C1705      H1708   1.082       .  S
C1706      C1707   1.374       .  A
C1706      C3437   1.474       .  S
C1707      H1709   1.082       .  S
N1710      N1711   1.322       .  A
N1710      C1714   1.349       .  A
N1711      C1712   1.341       .  A
C1712      C1713   1.385       .  A
C1712      H1715   1.076   1_655  S
C1713      C1714   1.396       .  A
C1713      C3311   1.497   1_655  S
C1714      H1716   1.082       .  S
N1717      N1718   1.319       .  A
N1717      C1721   1.343       .  A
N1717     Cu1725   2.057       .  S
N1718      C1719   1.342       .  A
N1718     Cu1724   2.058       .  S
C1719      C1720   1.383       .  A
C1719      H1722   1.082       .  S
C1720      C1721   1.383       .  A
C1720      C4193   1.474       .  S
C1721      H1723   1.082       .  S
Cu1724     N1727   2.059       .  S
Cu1725     N1735   2.058       .  S
Cu1726     N1728   2.101       .  S
Cu1726     N1734   2.102       .  S
N1727      N1728   1.324       .  A
N1727      C1731   1.342       .  A
N1728      C1729   1.351       .  A
C1729      C1730   1.387       .  A
C1729      H1732   1.082       .  S
C1730      C1731   1.376       .  A
C1730      C3266   1.474       .  S
C1731      H1733   1.082       .  S
N1734      N1735   1.324       .  A
N1734      C1738   1.350       .  A
N1735      C1736   1.341       .  A
C1736      C1737   1.377       .  A
C1736      H1739   1.082       .  S
C1737      C1738   1.390       .  A
C1737      C3280   1.480       .  S
C1738      H1740   1.082       .  S
N1741      N1742   1.316       .  A
N1741      C1745   1.345       .  A
N1741     Cu1749   2.061       .  S
N1742      C1743   1.338       .  A
N1742     Cu1748   2.040       .  S
C1743      C1744   1.383       .  A
C1743      H1746   1.081       .  S
C1744      C1745   1.388       .  A
C1744      C4753   1.478       .  S
C1745      H1747   1.082       .  S
Cu1748     N1751   2.040       .  S
Cu1749     N1759   2.064       .  S
Cu1750     N1752   2.110       .  S
Cu1750     N1758   2.113       .  S
N1751      N1752   1.318       .  A
N1751      C1755   1.334       .  A
N1752      C1753   1.354       .  A
C1753      C1754   1.402       .  A
C1753      H1756   1.081       .  S
C1754      C1755   1.383       .  A
C1754      C3252   1.502       .  S
C1755      H1757   1.073       .  S
N1758      N1759   1.327       .  A
N1758      C1762   1.351       .  A
N1759      C1760   1.341       .  A
C1760      C1761   1.376       .  A
C1760      H1763   1.082       .  S
C1761      C1762   1.390       .  A
C1761      C3283   1.481       .  S
C1762      H1764   1.082       .  S
C1765      C1766   1.409       .  A
C1765      C1770   1.409       .  A
C1765      C3574   1.495       .  S
C1766      C1767   1.404       .  A
C1766      H1771   1.083       .  S
C1767      C1768   1.404       .  A
C1767      C3619   1.490       .  S
C1768      C1769   1.401       .  A
C1768      H1772   1.082       .  S
C1769      C1770   1.407       .  A
C1769      C3269   1.490       .  S
C1770      H1773   1.083       .  S
C1774      C1775   1.412       .  A
C1774      C1779   1.411       .  A
C1774      C3255   1.503       .  S
C1775      C1776   1.400       .  A
C1775      H1780   1.082       .  S
C1776      C1777   1.400       .  A
C1776      C3367   1.481       .  S
C1777      C1778   1.402       .  A
C1777      H1781   1.084       .  S
C1778      C1779   1.408       .  A
C1778      C3238   1.486       .  S
C1779      H1782   1.082       .  S
N1783      N1784   1.319       .  A
N1783      C1787   1.342   1_565  A
N1783     Cu1791   2.053   1_565  S
N1784      C1785   1.343       .  A
N1784     Cu1790   2.060       .  S
C1785      C1786   1.382       .  A
C1785      H1788   1.082       .  S
C1786      C1787   1.381   1_565  A
C1786      C3210   1.470   1_565  S
C1787      H1789   1.082       .  S
Cu1790     N1793   2.061       .  S
Cu1791     N1801   2.054       .  S
Cu1792     N1794   2.106       .  S
Cu1792     N1800   2.106   1_565  S
N1793      N1794   1.325       .  A
N1793      C1797   1.341       .  A
N1794      C1795   1.352       .  A
C1795      C1796   1.388       .  A
C1795      H1798   1.082       .  S
C1796      C1797   1.376       .  A
C1796      C3325   1.477       .  S
C1797      H1799   1.082       .  S
N1800      N1801   1.321       .  A
N1800      C1804   1.350       .  A
N1801      C1802   1.340       .  A
C1802      C1803   1.383       .  A
C1802      H1805   1.077       .  S
C1803      C1804   1.395       .  A
C1803      C3224   1.493       .  S
C1804      H1806   1.082       .  S
N1807      N1808   1.319       .  A
N1807      C1811   1.343       .  A
N1807     Cu1815   2.056       .  S
N1808      C1809   1.343       .  A
N1808     Cu1814   2.058       .  S
C1809      C1810   1.383       .  A
C1809      H1812   1.082       .  S
C1810      C1811   1.382       .  A
C1810      C4011   1.472       .  S
C1811      H1813   1.082       .  S
Cu1814     N1817   2.059       .  S
Cu1815     N1825   2.056       .  S
Cu1816     N1818   2.104       .  S
Cu1816     N1824   2.104       .  S
N1817      N1818   1.323       .  A
N1817      C1821   1.341       .  A
N1818      C1819   1.352       .  A
C1819      C1820   1.390       .  A
C1819      H1822   1.082       .  S
C1820      C1821   1.379       .  A
C1820      C3196   1.483       .  S
C1821      H1823   1.082       .  S
N1824      N1825   1.322       .  A
N1824      C1828   1.349       .  A
N1825      C1826   1.341       .  A
C1826      C1827   1.382       .  A
C1826      H1829   1.078       .  S
C1827      C1828   1.394       .  A
C1827      C3227   1.491       .  S
C1828      H1830   1.082       .  S
N1831      N1832   1.318       .  A
N1831      C1835   1.345       .  A
N1831     Cu1839   2.064       .  S
N1832      C1833   1.340       .  A
N1832     Cu1838   2.048       .  S
C1833      C1834   1.380       .  A
C1833      H1836   1.082       .  S
C1834      C1835   1.386       .  A
C1834      C3154   1.473       .  S
C1835      H1837   1.082       .  S
Cu1838     N1841   2.048       .  S
Cu1839     N1849   2.066       .  S
Cu1840     N1842   2.102       .  S
Cu1840     N1848   2.104       .  S
N1841      N1842   1.321       .  A
N1841      C1845   1.339       .  A
N1842      C1843   1.352       .  A
C1843      C1844   1.392       .  A
C1843      H1846   1.082       .  S
C1844      C1845   1.378       .  A
C1844      C3171   1.481       .  S
C1845      H1847   1.081       .  S
N1848      N1849   1.325       .  A
N1848      C1852   1.350       .  A
N1849      C1850   1.342       .  A
C1850      C1851   1.380       .  A
C1850      H1853   1.082       .  S
C1851      C1852   1.389       .  A
C1851      C3182   1.483       .  S
C1852      H1854   1.082       .  S
N1855      N1856   1.319       .  A
N1855      C1859   1.343       .  A
N1855     Cu1863   2.058       .  S
N1856      C1857   1.342       .  A
N1856     Cu1862   2.056       .  S
C1857      C1858   1.382       .  A
C1857      H1860   1.082       .  S
C1858      C1859   1.382       .  A
C1858      C4249   1.471       .  S
C1859      H1861   1.082       .  S
Cu1862     N1865   2.057       .  S
Cu1863     N1873   2.059       .  S
Cu1864     N1866   2.101       .  S
Cu1864     N1872   2.101       .  S
N1865      N1866   1.324       .  A
N1865      C1869   1.341       .  A
N1866      C1867   1.351       .  A
C1867      C1868   1.388       .  A
C1867      H1870   1.082       .  S
C1868      C1869   1.375       .  A
C1868      C3241   1.474       .  S
C1869      H1871   1.082       .  S
N1872      N1873   1.323       .  A
N1872      C1876   1.350       .  A
N1873      C1874   1.341       .  A
C1874      C1875   1.379       .  A
C1874      H1877   1.082       .  S
C1875      C1876   1.390       .  A
C1875      C3185   1.483       .  S
C1876      H1878   1.082       .  S
N1879      N1880   1.317       .  A
N1879      C1883   1.343       .  A
N1879     Cu1887   2.055       .  S
N1880      C1881   1.342       .  A
N1880     Cu1886   2.050       .  S
C1881      C1882   1.382       .  A
C1881      H1884   1.081       .  S
C1882      C1883   1.384       .  A
C1882      C4515   1.471   1_455  S
C1883      H1885   1.082       .  S
Cu1886     N1889   2.050       .  S
Cu1887     N1897   2.057       .  S
Cu1888     N1890   2.108       .  S
Cu1888     N1896   2.109       .  S
N1889      N1890   1.319       .  A
N1889      C1893   1.336       .  A
N1890      C1891   1.353       .  A
C1891      C1892   1.400       .  A
C1891      H1894   1.081       .  S
C1892      C1893   1.385       .  A
C1892      C3126   1.502       .  S
C1893      H1895   1.073       .  S
N1896      N1897   1.324       .  A
N1896      C1900   1.350       .  A
N1897      C1898   1.340       .  A
C1898      C1899   1.381       .  A
C1898      H1901   1.081       .  S
C1899      C1900   1.394       .  A
C1899      C3140   1.491       .  S
C1900      H1902   1.082       .  S
N1903      N1904   1.317       .  A
N1903      C1907   1.343       .  A
N1903     Cu1911   2.055       .  S
N1904      C1905   1.341       .  A
N1904     Cu1910   2.050       .  S
C1905      C1906   1.384       .  A
C1905      H1908   1.081       .  S
C1906      C1907   1.385       .  A
C1906      C3098   1.476       .  S
C1907      H1909   1.082       .  S
Cu1910     N1913   2.051       .  S
Cu1911     N1921   2.056       .  S
Cu1912     N1914   2.109       .  S
Cu1912     N1920   2.110       .  S
N1913      N1914   1.323       .  A
N1913      C1917   1.338       .  A
N1914      C1915   1.353       .  A
C1915      C1916   1.395       .  A
C1915      H1918   1.082       .  S
C1916      C1917   1.378       .  A
C1916      C3112   1.487       .  S
C1917      H1919   1.082       .  S
N1920      N1921   1.322       .  A
N1920      C1924   1.350       .  A
N1921      C1922   1.339       .  A
C1922      C1923   1.383       .  A
C1922      H1925   1.076       .  S
C1923      C1924   1.397       .  A
C1923      C3143   1.496       .  S
C1924      H1926   1.082       .  S
C1927      C1928   1.410       .  A
C1927      C1932   1.410       .  A
C1927      C3129   1.500       .  S
C1928      C1929   1.401       .  A
C1928      H1933   1.083       .  S
C1929      C1930   1.400       .  A
C1929      C3675   1.482       .  S
C1930      C1931   1.401       .  A
C1930      H1934   1.084       .  S
C1931      C1932   1.407       .  A
C1931      C3168   1.478       .  S
C1932      H1935   1.082       .  S
C1936      C1937   1.404       .  A
C1936      C1941   1.402       .  A
C1936      C3199   1.479       .  S
C1937      C1938   1.406       .  A
C1937      H1942   1.083       .  S
C1938      C1939   1.407       .  A
C1938      C3297   1.487       .  S
C1939      C1940   1.402       .  A
C1939      H1943   1.084       .  S
C1940      C1941   1.404       .  A
C1940      C3115   1.479       .  S
C1941      H1944   1.084       .  S
N1945      N1946   1.318       .  A
N1945      C1949   1.343       .  A
N1945     Cu1953   2.054       .  S
N1946      C1947   1.341       .  A
N1946     Cu1952   2.058       .  S
C1947      C1948   1.383       .  A
C1947      H1950   1.082       .  S
C1948      C1949   1.384       .  A
C1948      C4725   1.475       .  S
C1949      H1951   1.080       .  S
Cu1952     N1955   2.059       .  S
Cu1953     N1963   2.055       .  S
Cu1954     N1956   2.098       .  S
Cu1954     N1962   2.099       .  S
N1955      N1956   1.324       .  A
N1955      C1959   1.341       .  A
N1956      C1957   1.351       .  A
C1957      C1958   1.388       .  A
C1957      H1960   1.082       .  S
C1958      C1959   1.376       .  A
C1958      C3070   1.475       .  S
C1959      H1961   1.082       .  S
N1962      N1963   1.323       .  A
N1962      C1966   1.349       .  A
N1963      C1964   1.341       .  A
C1964      C1965   1.378       .  A
C1964      H1967   1.081       .  S
C1965      C1966   1.389       .  A
C1965      C3084   1.479       .  S
C1966      H1968   1.082       .  S
N1969      N1970   1.316       .  A
N1969      C1973   1.343       .  A
N1969     Cu1977   2.055       .  S
N1970      C1971   1.340       .  A
N1970     Cu1976   2.057       .  S
C1971      C1972   1.388       .  A
C1971      H1974   1.082       .  S
C1972      C1973   1.389       .  A
C1972      C4162   1.487       .  S
C1973      H1975   1.077       .  S
Cu1976     N1979   2.058       .  S
Cu1977     N1987   2.057       .  S
Cu1978     N1980   2.102       .  S
Cu1978     N1986   2.102       .  S
N1979      N1980   1.322       .  A
N1979      C1983   1.339       .  A
N1980      C1981   1.352       .  A
C1981      C1982   1.393       .  A
C1981      H1984   1.082       .  S
C1982      C1983   1.381       .  A
C1982      C3056   1.489       .  S
C1983      H1985   1.081       .  S
N1986      N1987   1.323       .  A
N1986      C1990   1.350       .  A
N1987      C1988   1.340       .  A
C1988      C1989   1.379       .  A
C1988      H1991   1.080       .  S
C1989      C1990   1.391       .  A
C1989      C3087   1.482       .  S
C1990      H1992   1.082       .  S
N1993      N1994   1.318       .  A
N1993      C1997   1.343       .  A
N1993     Cu2001   2.057       .  S
N1994      C1995   1.342       .  A
N1994     Cu2000   2.059       .  S
C1995      C1996   1.384       .  A
C1995      H1998   1.082       .  S
C1996      C1997   1.385       .  A
C1996      C5243   1.477       .  S
C1997      H1999   1.080       .  S
Cu2000     N2003   2.060       .  S
Cu2001     N2011   2.058       .  S
Cu2002     N2004   2.097       .  S
Cu2002     N2010   2.098       .  S
N2003      N2004   1.324       .  A
N2003      C2007   1.342       .  A
N2004      C2005   1.350       .  A
C2005      C2006   1.387       .  A
C2005      H2008   1.082       .  S
C2006      C2007   1.376       .  A
C2006      C3028   1.473       .  S
C2007      H2009   1.082       .  S
N2010      N2011   1.323       .  A
N2010      C2014   1.350       .  A
N2011      C2012   1.341       .  A
C2012      C2013   1.379       .  A
C2012      H2015   1.082       .  S
C2013      C2014   1.389       .  A
C2013      C3042   1.480       .  S
C2014      H2016   1.082       .  S
N2017      N2018   1.317       .  A
N2017      C2021   1.345       .  A
N2017     Cu2025   2.060       .  S
N2018      C2019   1.339       .  A
N2018     Cu2024   2.050       .  S
C2019      C2020   1.384       .  A
C2019      H2022   1.082       .  S
C2020      C2021   1.388       .  A
C2020      C3213   1.480       .  S
C2021      H2023   1.079   1_545  S
Cu2024     N2027   2.050       .  S
Cu2025     N2035   2.061       .  S
Cu2026     N2028   2.103       .  S
Cu2026     N2034   2.104       .  S
N2027      N2028   1.321       .  A
N2027      C2031   1.339       .  A
N2028      C2029   1.351       .  A
C2029      C2030   1.396       .  A
C2029      H2032   1.081       .  S
C2030      C2031   1.381       .  A
C2030      C3014   1.491       .  S
C2031      H2033   1.082       .  S
N2034      N2035   1.325       .  A
N2034      C2038   1.350       .  A
N2035      C2036   1.341   1_545  A
C2036      C2037   1.378       .  A
C2036      H2039   1.082       .  S
C2037      C2038   1.390   1_565  A
C2037      C3045   1.482       .  S
C2038      H2040   1.082       .  S
C2041      C2042   1.403       .  A
C2041      C2046   1.404       .  A
C2041      C3073   1.487       .  S
C2042      C2043   1.402       .  A
C2042      H2047   1.082       .  S
C2043      C2044   1.406       .  A
C2043      C3017   1.484       .  S
C2044      C2045   1.408       .  A
C2044      H2048   1.083       .  S
C2045      C2046   1.406       .  A
C2045      C3003   1.495       .  S
C2046      H2049   1.081       .  S
N2050      N2051   1.317       .  A
N2050      C2054   1.346       .  A
N2050     Cu2058   2.061       .  S
N2051      C2052   1.339       .  A
N2051     Cu2057   2.044       .  S
C2052      C2053   1.380       .  A
C2052      H2055   1.082       .  S
C2053      C2054   1.387       .  A
C2053      C4683   1.473       .  S
C2054      H2056   1.081       .  S
Cu2057     N2060   2.044       .  S
Cu2058     N2068   2.064       .  S
Cu2059     N2061   2.108       .  S
Cu2059     N2067   2.111       .  S
N2060      N2061   1.317       .  A
N2060      C2064   1.334       .  A
N2061      C2062   1.353       .  A
C2062      C2063   1.405       .  A
C2062      H2065   1.081       .  S
C2063      C2064   1.387       .  A
C2063      C2972   1.509       .  S
C2064      H2066   1.072       .  S
N2067      N2068   1.325       .  A
N2067      C2071   1.351       .  A
N2068      C2069   1.340       .  A
C2069      C2070   1.378       .  A
C2069      H2072   1.082       .  S
C2070      C2071   1.392       .  A
C2070      C2986   1.486       .  S
C2071      H2073   1.080       .  S
N2074      N2075   1.319       .  A
N2074      C2078   1.343   1_565  A
N2074     Cu2082   2.058   1_565  S
N2075      C2076   1.342       .  A
N2075     Cu2081   2.058       .  S
C2076      C2077   1.381       .  A
C2076      H2079   1.082       .  S
C2077      C2078   1.383   1_565  A
C2077      C3448   1.472       .  S
C2078      H2080   1.082       .  S
Cu2081     N2084   2.059       .  S
Cu2082     N2092   2.059       .  S
Cu2083     N2085   2.098       .  S
Cu2083     N2091   2.098       .  S
N2084      N2085   1.324       .  A
N2084      C2088   1.342       .  A
N2085      C2086   1.350       .  A
C2086      C2087   1.386       .  A
C2086      H2089   1.082       .  S
C2087      C2088   1.376       .  A
C2087      C2958   1.473       .  S
C2088      H2090   1.082       .  S
N2091      N2092   1.323   1_565  A
N2091      C2095   1.349   1_565  A
N2092      C2093   1.341       .  A
C2093      C2094   1.380       .  A
C2093      H2096   1.082       .  S
C2094      C2095   1.391       .  A
C2094      C2989   1.484       .  S
C2095      H2097   1.080   1_545  S
N2098      N2099   1.319       .  A
N2098      C2102   1.344       .  A
N2098     Cu2106   2.065       .  S
N2099      C2100   1.341       .  A
N2099     Cu2105   2.054       .  S
C2100      C2101   1.383       .  A
C2100      H2103   1.080       .  S
C2101      C2102   1.386       .  A
C2101      C3521   1.476       .  S
C2102      H2104   1.082       .  S
Cu2105     N2108   2.055       .  S
Cu2106     N2116   2.066       .  S
Cu2107     N2109   2.097       .  S
Cu2107     N2115   2.098       .  S
N2108      N2109   1.320       .  A
N2108      C2112   1.339       .  A
N2109      C2110   1.350       .  A
C2110      C2111   1.398       .  A
C2110      H2113   1.077       .  S
C2111      C2112   1.386       .  A
C2111      C2930   1.498       .  S
C2112      H2114   1.081       .  S
N2115      N2116   1.323       .  A
N2115      C2119   1.349       .  A
N2116      C2117   1.342       .  A
C2117      C2118   1.382       .  A
C2117      H2120   1.082       .  S
C2118      C2119   1.391       .  A
C2118      C2944   1.487       .  S
C2119      H2121   1.080       .  S
N2122      N2123   1.318   1_556  A
N2122      C2126   1.345       .  A
N2122     Cu2130   2.066       .  S
N2123      C2124   1.340       .  A
N2123     Cu2129   2.053       .  S
C2124      C2125   1.386   1_554  A
C2124      H2127   1.081       .  S
C2125      C2126   1.390       .  A
C2125      C4053   1.486       .  S
C2126      H2128   1.081       .  S
Cu2129     N2132   2.054       .  S
Cu2130     N2140   2.068       .  S
Cu2131     N2133   2.094       .  S
Cu2131     N2139   2.095   1_554  S
N2132      N2133   1.322       .  A
N2132      C2136   1.340       .  A
N2133      C2134   1.350       .  A
C2134      C2135   1.389       .  A
C2134      H2137   1.082       .  S
C2135      C2136   1.378       .  A
C2135      C2919   1.478       .  S
C2136      H2138   1.082       .  S
N2139      N2140   1.324       .  A
N2139      C2143   1.348       .  A
N2140      C2141   1.342       .  A
C2141      C2142   1.381       .  A
C2141      H2144   1.082       .  S
C2142      C2143   1.390       .  A
C2142      C2947   1.485       .  S
C2143      H2145   1.080       .  S
C2146      C2147   1.403       .  A
C2146      C2151   1.404       .  A
C2146      C2902   1.481       .  S
C2147      C2148   1.399       .  A
C2147      H2152   1.084       .  S
C2148      C2149   1.402       .  A
C2148      C2916   1.475       .  S
C2149      C2150   1.406       .  A
C2149      H2153   1.084       .  S
C2150      C2151   1.406       .  A
C2150      C2891   1.488       .  S
C2151      H2154   1.081       .  S
C2155      C2156   1.401       .  A
C2155      C2160   1.401       .  A
C2155      C3059   1.483       .  S
C2156      C2157   1.411       .  A
C2156      H2161   1.083       .  S
C2157      C2158   1.409       .  A
C2157      C2975   1.498       .  S
C2158      C2159   1.408       .  A
C2158      H2162   1.082       .  S
C2159      C2160   1.403       .  A
C2159      C2933   1.486       .  S
C2160      H2163   1.084       .  S
N2164      N2165   1.319       .  A
N2164      C2168   1.345       .  A
N2164     Cu2172   2.063       .  S
N2165      C2166   1.340       .  A
N2165     Cu2171   2.049       .  S
C2166      C2167   1.378       .  A
C2166      H2169   1.082       .  S
C2167      C2168   1.382       .  A
C2167      C3633   1.466       .  S
C2168      H2170   1.082       .  S
Cu2171     N2174   2.049       .  S
Cu2172     N2182   2.065       .  S
Cu2173     N2175   2.093       .  S
Cu2173     N2181   2.094       .  S
N2174      N2175   1.322       .  A
N2174      C2178   1.339       .  A
N2175      C2176   1.350       .  A
C2176      C2177   1.389       .  A
C2176      H2179   1.082       .  S
C2177      C2178   1.377       .  A
C2177      C2860   1.477       .  S
C2178      H2180   1.082       .  S
N2181      N2182   1.325       .  A
N2181      C2185   1.348       .  A
N2182      C2183   1.342       .  A
C2183      C2184   1.379       .  A
C2183      H2186   1.082       .  S
C2184      C2185   1.387       .  A
C2184      C2874   1.478       .  S
C2185      H2187   1.082       .  S
N2188      N2189   1.319       .  A
N2188      C2192   1.345       .  A
N2188     Cu2196   2.062       .  S
N2189      C2190   1.340       .  A
N2189     Cu2195   2.050       .  S
C2190      C2191   1.380       .  A
C2190      H2193   1.082       .  S
C2191      C2192   1.385       .  A
C2191      C4386   1.472       .  S
C2192      H2194   1.082   1_556  S
Cu2195     N2198   2.051       .  S
Cu2196     N2206   2.063   1_556  S
Cu2197     N2199   2.094       .  S
Cu2197     N2205   2.096       .  S
N2198      N2199   1.322       .  A
N2198      C2202   1.339       .  A
N2199      C2200   1.350       .  A
C2200      C2201   1.391       .  A
C2200      H2203   1.082       .  S
C2201      C2202   1.378       .  A
C2201      C2846   1.480       .  S
C2202      H2204   1.082       .  S
N2205      N2206   1.325   1_556  A
N2205      C2209   1.348       .  A
N2206      C2207   1.342       .  A
C2207      C2208   1.379       .  A
C2207      H2210   1.082       .  S
C2208      C2209   1.387   1_554  A
C2208      C2877   1.478       .  S
C2209      H2211   1.082       .  S
N2212      N2213   1.319       .  A
N2212      C2216   1.345       .  A
N2212     Cu2220   2.062       .  S
N2213      C2214   1.340       .  A
N2213     Cu2219   2.050       .  S
C2214      C2215   1.381       .  A
C2214      H2217   1.082       .  S
C2215      C2216   1.385       .  A
C2215      C3563   1.472       .  S
C2216      H2218   1.082       .  S
Cu2219     N2222   2.051       .  S
Cu2220     N2230   2.063       .  S
Cu2221     N2223   2.093       .  S
Cu2221     N2229   2.094       .  S
N2222      N2223   1.323       .  A
N2222      C2226   1.340       .  A
N2223      C2224   1.350       .  A
C2224      C2225   1.386       .  A
C2224      H2227   1.082       .  S
C2225      C2226   1.374       .  A
C2225      C2905   1.470       .  S
C2226      H2228   1.082       .  S
N2229      N2230   1.323       .  A
N2229      C2233   1.348       .  A
N2230      C2231   1.341       .  A
C2231      C2232   1.383       .  A
C2231      H2234   1.082       .  S
C2232      C2233   1.392       .  A
C2232      C2832   1.489       .  S
C2233      H2235   1.081       .  S
N2236      N2237   1.319       .  A
N2236      C2240   1.344       .  A
N2236     Cu2244   2.060       .  S
N2237      C2238   1.342       .  A
N2237     Cu2243   2.058       .  S
C2238      C2239   1.382       .  A
C2238      H2241   1.082       .  S
C2239      C2240   1.384       .  A
C2239      C4473   1.474       .  S
C2240      H2242   1.082       .  S
Cu2243     N2246   2.059       .  S
Cu2244     N2254   2.061       .  S
Cu2245     N2247   2.092       .  S
Cu2245     N2253   2.092       .  S
N2246      N2247   1.323       .  A
N2246      C2250   1.341       .  A
N2247      C2248   1.349       .  A
C2248      C2249   1.385       .  A
C2248      H2251   1.082       .  S
C2249      C2250   1.376       .  A
C2249      C2818   1.472       .  S
C2250      H2252   1.082       .  S
N2253      N2254   1.322       .  A
N2253      C2257   1.348       .  A
N2254      C2255   1.341       .  A
C2255      C2256   1.383       .  A
C2255      H2258   1.082       .  S
C2256      C2257   1.392       .  A
C2256      C2835   1.488       .  S
C2257      H2259   1.081       .  S
C2260      C2261   1.404       .  A
C2260      C2265   1.407       .  A
C2260      C2821   1.486       .  S
C2261      C2262   1.401       .  A
C2261      H2266   1.082       .  S
C2262      C2263   1.399       .  A
C2262      C2863   1.475       .  S
C2263      C2264   1.403       .  A
C2263      H2267   1.084       .  S
C2264      C2265   1.405       .  A
C2264      C2804   1.483       .  S
C2265      H2268   1.084       .  S
N2269      N2270   1.318       .  A
N2269      C2273   1.345       .  A
N2269     Cu2277   2.062       .  S
N2270      C2271   1.340       .  A
N2270     Cu2276   2.051       .  S
C2271      C2272   1.383       .  A
C2271      H2274   1.082       .  S
C2272      C2273   1.387       .  A
C2272      C4319   1.479       .  S
C2273      H2275   1.081       .  S
Cu2276     N2279   2.051       .  S
Cu2277     N2287   2.064       .  S
Cu2278     N2280   2.098       .  S
Cu2278     N2286   2.098       .  S
N2279      N2280   1.323       .  A
N2279      C2283   1.340       .  A
N2280      C2281   1.351       .  A
C2281      C2282   1.388       .  A
C2281      H2284   1.082       .  S
C2282      C2283   1.375       .  A
C2282      C2779   1.473       .  S
C2283      H2285   1.082       .  S
N2286      N2287   1.324       .  A
N2286      C2290   1.349       .  A
N2287      C2288   1.341       .  A
C2288      C2289   1.379       .  A
C2288      H2291   1.082       .  S
C2289      C2290   1.389       .  A
C2289      C2790   1.482       .  S
C2290      H2292   1.082       .  S
N2293      N2294   1.318       .  A
N2293      C2297   1.344       .  A
N2293     Cu2301   2.064       .  S
N2294      C2295   1.342       .  A
N2294     Cu2300   2.053       .  S
C2295      C2296   1.384       .  A
C2295      H2298   1.081       .  S
C2296      C2297   1.386       .  A
C2296      C5145   1.478       .  S
C2297      H2299   1.082       .  S
Cu2300     N2303   2.054       .  S
Cu2301     N2311   2.065       .  S
Cu2302     N2304   2.095       .  S
Cu2302     N2310   2.095       .  S
N2303      N2304   1.323       .  A
N2303      C2307   1.339       .  A
N2304      C2305   1.351       .  A
C2305      C2306   1.389       .  A
C2305      H2308   1.082       .  S
C2306      C2307   1.376       .  A
C2306      C2762   1.477       .  S
C2307      H2309   1.082       .  S
N2310      N2311   1.324       .  A
N2310      C2314   1.348       .  A
N2311      C2312   1.342       .  A
C2312      C2313   1.381       .  A
C2312      H2315   1.082   1_655  S
C2313      C2314   1.389       .  A
C2313      C2793   1.483   1_655  S
C2314      H2316   1.080       .  S
C2317      C2318   1.408       .  A
C2317      C2322   1.406       .  A
C2317      C2748   1.495       .  S
C2318      C2319   1.403       .  A
C2318      H2323   1.084       .  S
C2319      C2320   1.403       .  A
C2319      C3031   1.487       .  S
C2320      C2321   1.403       .  A
C2320      H2324   1.082       .  S
C2321      C2322   1.406       .  A
C2321      C2776   1.485       .  S
C2322      H2325   1.080       .  S
N2326      N2327   1.320       .  A
N2326      C2330   1.344       .  A
N2326     Cu2334   2.058       .  S
N2327      C2328   1.342       .  A
N2327     Cu2333   2.059       .  S
C2328      C2329   1.381       .  A
C2328      H2331   1.082       .  S
C2329      C2330   1.381       .  A
C2329      C3773   1.468   1_455  S
C2330      H2332   1.082       .  S
Cu2333     N2336   2.059       .  S
Cu2334     N2344   2.058       .  S
Cu2335     N2337   2.098       .  S
Cu2335     N2343   2.099       .  S
N2336      N2337   1.323       .  A
N2336      C2340   1.342       .  A
N2337      C2338   1.351       .  A
C2338      C2339   1.388       .  A
C2338      H2341   1.082       .  S
C2339      C2340   1.376       .  A
C2339      C2720   1.475       .  S
C2340      H2342   1.082       .  S
N2343      N2344   1.320       .  A
N2343      C2347   1.346       .  A
N2344      C2345   1.341       .  A
C2345      C2346   1.390       .  A
C2345      H2348   1.077       .  S
C2346      C2347   1.399       .  A
C2346      C2734   1.505       .  S
C2347      H2349   1.080       .  S
N2350      N2351   1.317       .  A
N2350      C2354   1.343       .  A
N2350     Cu2358   2.051       .  S
N2351      C2352   1.341       .  A
N2351     Cu2357   2.052       .  S
C2352      C2353   1.382       .  A
C2352      H2355   1.082       .  S
C2353      C2354   1.383       .  A
C2353      C3353   1.471       .  S
C2354      H2356   1.082       .  S
Cu2357     N2360   2.052       .  S
Cu2358     N2368   2.053       .  S
Cu2359     N2361   2.107       .  S
Cu2359     N2367   2.108       .  S
N2360      N2361   1.320       .  A
N2360      C2364   1.336       .  A
N2361      C2362   1.353       .  A
C2362      C2363   1.399       .  A
C2362      H2365   1.081       .  S
C2363      C2364   1.385       .  A
C2363      C2751   1.500       .  S
C2364      H2366   1.078       .  S
N2367      N2368   1.319       .  A
N2367      C2371   1.349       .  A
N2368      C2369   1.337       .  A
C2369      C2370   1.390       .  A
C2369      H2372   1.072       .  S
C2370      C2371   1.404       .  A
C2370      C2737   1.511       .  S
C2371      H2373   1.080       .  S
N2374      N2375   1.319       .  A
N2374      C2378   1.344       .  A
N2374     Cu2382   2.062       .  S
N2375      C2376   1.341       .  A
N2375     Cu2381   2.053       .  S
C2376      C2377   1.383       .  A
C2376      H2379   1.082       .  S
C2377      C2378   1.385       .  A
C2377      C4109   1.475       .  S
C2378      H2380   1.082       .  S
Cu2381     N2384   2.054       .  S
Cu2382     N2392   2.064       .  S
Cu2383     N2385   2.093       .  S
Cu2383     N2391   2.094       .  S
N2384      N2385   1.323       .  A
N2384      C2388   1.340       .  A
N2385      C2386   1.350       .  A
C2386      C2387   1.386       .  A
C2386      H2389   1.082       .  S
C2387      C2388   1.375       .  A
C2387      C2807   1.471       .  S
C2388      H2390   1.082       .  S
N2391      N2392   1.323       .  A
N2391      C2395   1.348       .  A
N2392      C2393   1.342       .  A
C2393      C2394   1.382       .  A
C2393      H2396   1.081       .  S
C2394      C2395   1.390       .  A
C2394      C2706   1.486       .  S
C2395      H2397   1.082       .  S
N2398      N2399   1.318       .  A
N2398      C2402   1.344       .  A
N2398     Cu2406   2.057       .  S
N2399      C2400   1.341       .  A
N2399     Cu2405   2.057   1_655  S
C2400      C2401   1.383       .  A
C2400      H2403   1.082   1_655  S
C2401      C2402   1.385       .  A
C2401      C5061   1.475       .  S
C2402      H2404   1.080       .  S
Cu2405     N2408   2.058       .  S
Cu2406     N2416   2.058       .  S
Cu2407     N2409   2.098       .  S
Cu2407     N2415   2.098   1_455  S
N2408      N2409   1.323       .  A
N2408      C2412   1.342       .  A
N2409      C2410   1.350       .  A
C2410      C2411   1.387       .  A
C2410      H2413   1.082       .  S
C2411      C2412   1.377       .  A
C2411      C2692   1.475       .  S
C2412      H2414   1.082       .  S
N2415      N2416   1.323       .  A
N2415      C2419   1.349       .  A
N2416      C2417   1.341       .  A
C2417      C2418   1.380       .  A
C2417      H2420   1.081       .  S
C2418      C2419   1.390       .  A
C2418      C2709   1.484       .  S
C2419      H2421   1.082       .  S
N2422      N2423   1.319       .  A
N2422      C2426   1.344       .  A
N2422     Cu2430   2.061       .  S
N2423      C2424   1.341       .  A
N2423     Cu2429   2.051       .  S
C2424      C2425   1.381       .  A
C2424      H2427   1.082       .  S
C2425      C2426   1.383       .  A
C2425      C3157   1.471       .  S
C2426      H2428   1.082       .  S
Cu2429     N2432   2.051       .  S
Cu2430     N2440   2.063       .  S
Cu2431     N2433   2.104       .  S
Cu2431     N2439   2.105       .  S
N2432      N2433   1.322       .  A
N2432      C2436   1.339       .  A
N2433      C2434   1.352       .  A
C2434      C2435   1.393       .  A
C2434      H2437   1.082       .  S
C2435      C2436   1.379       .  A
C2435      C2664   1.486       .  S
C2436      H2438   1.082       .  S
N2439      N2440   1.325       .  A
N2439      C2443   1.350       .  A
N2440      C2441   1.342       .  A
C2441      C2442   1.378       .  A
C2441      H2444   1.082       .  S
C2442      C2443   1.390       .  A
C2442      C2678   1.482       .  S
C2443      H2445   1.082       .  S
N2446      N2447   1.318       .  A
N2446      C2450   1.344       .  A
N2446     Cu2454   2.060       .  S
N2447      C2448   1.340       .  A
N2447     Cu2453   2.050       .  S
C2448      C2449   1.382       .  A
C2448      H2451   1.081       .  S
C2449      C2450   1.384       .  A
C2449      C4921   1.472       .  S
C2450      H2452   1.082       .  S
Cu2453     N2456   2.051       .  S
Cu2454     N2464   2.061       .  S
Cu2455     N2457   2.102       .  S
Cu2455     N2463   2.103       .  S
N2456      N2457   1.323       .  A
N2456      C2460   1.340       .  A
N2457      C2458   1.351       .  A
C2458      C2459   1.389       .  A
C2458      H2461   1.082       .  S
C2459      C2460   1.376       .  A
C2459      C2650   1.476       .  S
C2460      H2462   1.082       .  S
N2463      N2464   1.324       .  A
N2463      C2467   1.350       .  A
N2464      C2465   1.341       .  A
C2465      C2466   1.378       .  A
C2465      H2468   1.082       .  S
C2466      C2467   1.390       .  A
C2466      C2681   1.482       .  S
C2467      H2469   1.082       .  S
N2470      N2471   1.318       .  A
N2470      C2474   1.343       .  A
N2470     Cu2478   2.056       .  S
N2471      C2472   1.342       .  A
N2471     Cu2477   2.056       .  S
C2472      C2473   1.382       .  A
C2472      H2475   1.082       .  S
C2473      C2474   1.382       .  A
C2473      C3969   1.470       .  S
C2474      H2476   1.082       .  S
Cu2477     N2480   2.056       .  S
Cu2478     N2488   2.058       .  S
Cu2479     N2481   2.099       .  S
Cu2479     N2487   2.100       .  S
N2480      N2481   1.318       .  A
N2480      C2484   1.336       .  A
N2481      C2482   1.351       .  A
C2482      C2483   1.403       .  A
C2482      H2485   1.076       .  S
C2483      C2484   1.391       .  A
C2483      C3000   1.511       .  S
C2484      H2486   1.079       .  S
N2487      N2488   1.323       .  A
N2487      C2491   1.349       .  A
N2488      C2489   1.341       .  A
C2489      C2490   1.381       .  A
C2489      H2492   1.081       .  S
C2490      C2491   1.392       .  A
C2490      C2639   1.487       .  S
C2491      H2493   1.082       .  S
N2494      N2495   1.318       .  A
N2494      C2498   1.343       .  A
N2494     Cu2502   2.057       .  S
N2495      C2496   1.341       .  A
N2495     Cu2501   2.053       .  S
C2496      C2497   1.382       .  A
C2496      H2499   1.082       .  S
C2497      C2498   1.383       .  A
C2497      C3101   1.472       .  S
C2498      H2500   1.082       .  S
Cu2501     N2504   2.054       .  S
Cu2502     N2512   2.058       .  S
Cu2503     N2505   2.096       .  S
Cu2503     N2511   2.097       .  S
N2504      N2505   1.322       .  A
N2504      C2508   1.339       .  A
N2505      C2506   1.351       .  A
C2506      C2507   1.391       .  A
C2506      H2509   1.082       .  S
C2507      C2508   1.380       .  A
C2507      C2622   1.484       .  S
C2508      H2510   1.081       .  S
N2511      N2512   1.323       .  A
N2511      C2515   1.349       .  A
N2512      C2513   1.341       .  A
C2513      C2514   1.381       .  A
C2513      H2516   1.081       .  S
C2514      C2515   1.391       .  A
C2514      C2636   1.485       .  S
C2515      H2517   1.082       .  S
N2518      N2519   1.318       .  A
N2518      C2522   1.343       .  A
N2518     Cu2526   2.056       .  S
N2519      C2520   1.340       .  A
N2519     Cu2525   2.056       .  S
C2520      C2521   1.384       .  A
C2520      H2523   1.082       .  S
C2521      C2522   1.386       .  A
C2521      C5019   1.477       .  S
C2522      H2524   1.079       .  S
Cu2525     N2528   2.057       .  S
Cu2526     N2536   2.057       .  S
Cu2527     N2529   2.094       .  S
Cu2527     N2535   2.094       .  S
N2528      N2529   1.323       .  A
N2528      C2532   1.341       .  A
N2529      C2530   1.350       .  A
C2530      C2531   1.386       .  A
C2530      H2533   1.082       .  S
C2531      C2532   1.375       .  A
C2531      C2888   1.472       .  S
C2532      H2534   1.082       .  S
N2535      N2536   1.324       .  A
N2535      C2539   1.349       .  A
N2536      C2537   1.341       .  A
C2537      C2538   1.377       .  A
C2537      H2540   1.082       .  S
C2538      C2539   1.387       .  A
C2538      C2608   1.475       .  S
C2539      H2541   1.082       .  S
N2542      N2543   1.318       .  A
N2542      C2546   1.346       .  A
N2542     Cu2550   2.062       .  S
N2543      C2544   1.339       .  A
N2543     Cu2549   2.048       .  S
C2544      C2545   1.380       .  A
C2544      H2547   1.082       .  S
C2545      C2546   1.384       .  A
C2545      C3885   1.471       .  S
C2546      H2548   1.082       .  S
Cu2549     N2552   2.048       .  S
Cu2550     N2560   2.064       .  S
Cu2551     N2553   2.097       .  S
Cu2551     N2559   2.099       .  S
N2552      N2553   1.318       .  A
N2552      C2556   1.336       .  A
N2553      C2554   1.350       .  A
C2554      C2555   1.402       .  A
C2554      H2557   1.079       .  S
C2555      C2556   1.388       .  A
C2555      C2597   1.505       .  S
C2556      H2558   1.079       .  S
N2559      N2560   1.325       .  A
N2559      C2563   1.349       .  A
N2560      C2561   1.341       .  A
C2561      C2562   1.378       .  A
C2561      H2564   1.082       .  S
C2562      C2563   1.387       .  A
C2562      C2611   1.477       .  S
C2563      H2565   1.082       .  S
C2566      C2567   1.399       .  A
C2566      C2571   1.403       .  A
C2566      C2653   1.477       .  S
C2567      C2568   1.401       .  A
C2567      H2572   1.084       .  S
C2568      C2569   1.403       .  A
C2568      C2625   1.482       .  S
C2569      C2570   1.408       .  A
C2569      H2573   1.081       .  S
C2570      C2571   1.409       .  A
C2570      C2594   1.492       .  S
C2571      H2574   1.084       .  S
C2575      C2576   1.410       .  A
C2575      C2580   1.405       .  A
C2575      C2723   1.494       .  S
C2576      C2577   1.408       .  A
C2576      H2581   1.078       .  S
C2577      C2578   1.408       .  A
C2577      C2695   1.495       .  S
C2578      C2579   1.400       .  A
C2578      H2582   1.084       .  S
C2579      C2580   1.401       .  A
C2579      C2667   1.481       .  S
C2580      H2583   1.084       .  S
C2584      C2585   1.401       .  A
C2584      C2589   1.401       .  A
C2584      C2849   1.475       .  S
C2585      C2586   1.406       .  A
C2585      H2590   1.084       .  S
C2586      C2587   1.406       .  A
C2586      C2961   1.486       .  S
C2587      C2588   1.403       .  A
C2587      H2591   1.083       .  S
C2588      C2589   1.401       .  A
C2588      C2765   1.477       .  S
C2589      H2592   1.084       .  S
C2593      C2594   1.406       .  A
C2593      C2598   1.412       .  A
C2593      H2600   1.083       .  S
C2594      C2595   1.415       .  A
C2595      C2596   1.395       .  A
C2595      N2602   1.434       .  S
C2596      C2597   1.410       .  A
C2596      H2601   1.078       .  S
C2597      C2598   1.418       .  A
C2598      N2599   1.435       .  S
N2599      H2603   1.046       .  S
N2599      H2604   1.046       .  S
N2602      H2605   1.045       .  S
N2602      H2606   1.042       .  S
C2607      C2608   1.401       .  A
C2607      C2612   1.400       .  A
C2607      H2614   1.084       .  S
C2608      C2609   1.417       .  A
C2609      C2610   1.401       .  A
C2609      N2616   1.438       .  S
C2610      C2611   1.402       .  A
C2610      H2615   1.084       .  S
C2611      C2612   1.418       .  A
C2612      N2613   1.438       .  S
N2613      H2617   1.045       .  S
N2613      H2618   1.043       .  S
N2616      H2619   1.043       .  S
N2616      H2620   1.045       .  S
C2621      C2622   1.404       .  A
C2621      C2626   1.406       .  A
C2621      H2628   1.084       .  S
C2622      C2623   1.414       .  A
C2623      C2624   1.402       .  A
C2623      N2630   1.438       .  S
C2624      C2625   1.402       .  A
C2624      H2629   1.084       .  S
C2625      C2626   1.418       .  A
C2626      N2627   1.439       .  S
N2627      H2631   1.046       .  S
N2627      H2632   1.042       .  S
N2630      H2633   1.046       .  S
N2630      H2634   1.046       .  S
C2635      C2636   1.402       .  A
C2635      C2640   1.406       .  A
C2635      H2642   1.083       .  S
C2636      C2637   1.415       .  A
C2637      C2638   1.406       .  A
C2637      N2644   1.438       .  S
C2638      C2639   1.402       .  A
C2638      H2643   1.083       .  S
C2639      C2640   1.417       .  A
C2640      N2641   1.437       .  S
N2641      H2645   1.046       .  S
N2641      H2646   1.046       .  S
N2644      H2647   1.046       .  S
N2644      H2648   1.046       .  S
C2649      C2650   1.402       .  A
C2649      C2654   1.403       .  A
C2649      H2656   1.084       .  S
C2650      C2651   1.418       .  A
C2651      C2652   1.401       .  A
C2651      N2658   1.440       .  S
C2652      C2653   1.401       .  A
C2652      H2657   1.084       .  S
C2653      C2654   1.416       .  A
C2654      N2655   1.439       .  S
N2655      H2659   1.046       .  S
N2655      H2660   1.043       .  S
N2658      H2661   1.043       .  S
N2658      H2662   1.046       .  S
C2663      C2664   1.403       .  A
C2663      C2668   1.405       .  A
C2663      H2670   1.084       .  S
C2664      C2665   1.415       .  A
C2665      C2666   1.404       .  A
C2665      N2672   1.438       .  S
C2666      C2667   1.400       .  A
C2666      H2671   1.084       .  S
C2667      C2668   1.419       .  A
C2668      N2669   1.439       .  S
N2669      H2673   1.046       .  S
N2669      H2674   1.043       .  S
N2672      H2675   1.046       .  S
N2672      H2676   1.046       .  S
C2677      C2678   1.405       .  A
C2677      C2682   1.403       .  A
C2677      H2684   1.084       .  S
C2678      C2679   1.417       .  A
C2679      C2680   1.403       .  A
C2679      N2686   1.439       .  S
C2680      C2681   1.405       .  A
C2680      H2685   1.084       .  S
C2681      C2682   1.417       .  A
C2682      N2683   1.439       .  S
N2683      H2687   1.046       .  S
N2683      H2688   1.041       .  S
N2686      H2689   1.041       .  S
N2686      H2690   1.046       .  S
C2691      C2692   1.401       .  A
C2691      C2696   1.402       .  A
C2691      H2698   1.084       .  S
C2692      C2693   1.414       .  A
C2693      C2694   1.400       .  A
C2693      N2700   1.439       .  S
C2694      C2695   1.407       .  A
C2694      H2699   1.084       .  S
C2695      C2696   1.421       .  A
C2696      N2697   1.433       .  S
N2697      H2701   1.042       .  S
N2697      H2702   1.045       .  S
N2700      H2703   1.043       .  S
N2700      H2704   1.046       .  S
C2705      C2706   1.402       .  A
C2705      C2710   1.405       .  A
C2705      H2712   1.083       .  S
C2706      C2707   1.415       .  A
C2707      C2708   1.407       .  A
C2707      N2714   1.437       .  S
C2708      C2709   1.402       .  A
C2708      H2713   1.083       .  S
C2709      C2710   1.415       .  A
C2710      N2711   1.438       .  S
N2711      H2715   1.046       .  S
N2711      H2716   1.046       .  S
N2714      H2717   1.046       .  S
N2714      H2718   1.046       .  S
C2719      C2720   1.401       .  A
C2719      C2724   1.402       .  A
C2719      H2726   1.084       .  S
C2720      C2721   1.414       .  A
C2721      C2722   1.403       .  A
C2721      N2728   1.439       .  S
C2722      C2723   1.409       .  A
C2722      H2727   1.084       .  S
C2723      C2724   1.420       .  A
C2724      N2725   1.437       .  S
N2725      H2729   1.046       .  S
N2725      H2730   1.043       .  S
N2728      H2731   1.043       .  S
N2728      H2732   1.046       .  S
C2733      C2734   1.402       .  A
C2733      C2738   1.397       .  A
C2733      H2740   1.080       .  S
C2734      C2735   1.420       .  A
C2735      C2736   1.409       .  A
C2735      N2742   1.436       .  S
C2736      C2737   1.408       .  A
C2736      H2741   1.079       .  S
C2737      C2738   1.426       .  A
C2738      N2739   1.428       .  S
N2739      H2743   1.044       .  S
N2739      H2744   1.045       .  S
N2742      H2745   1.046       .  S
N2742      H2746   1.046       .  S
C2747      C2748   1.402       .  A
C2747      C2752   1.402       .  A
C2747      H2754   1.084       .  S
C2748      C2749   1.419       .  A
C2749      C2750   1.405       .  A
C2749      N2756   1.433       .  S
C2750      C2751   1.407       .  A
C2750      H2755   1.082       .  S
C2751      C2752   1.420       .  A
C2752      N2753   1.437       .  S
N2753      H2757   1.046       .  S
N2753      H2758   1.046       .  S
N2756      H2759   1.045       .  S
N2756      H2760   1.042       .  S
C2761      C2762   1.403       .  A
C2761      C2766   1.399       .  A
C2761      H2768   1.084       .  S
C2762      C2763   1.418       .  A
C2763      C2764   1.404       .  A
C2763      N2770   1.439       .  S
C2764      C2765   1.403       .  A
C2764      H2769   1.084       .  S
C2765      C2766   1.415       .  A
C2766      N2767   1.439       .  S
N2767      H2771   1.045       .  S
N2767      H2772   1.043       .  S
N2770      H2773   1.042       .  S
N2770      H2774   1.046       .  S
C2775      C2776   1.404       .  A
C2775      C2780   1.399       .  A
C2775      H2782   1.084       .  S
C2776      C2777   1.420       .  A
C2777      C2778   1.405       .  A
C2777      N2784   1.439       .  S
C2778      C2779   1.402       .  A
C2778      H2783   1.084       .  S
C2779      C2780   1.414       .  A
C2780      N2781   1.439       .  S
N2781      H2785   1.046       .  S
N2781      H2786   1.043       .  S
N2784      H2787   1.042       .  S
N2784      H2788   1.046       .  S
C2789      C2790   1.405       .  A
C2789      C2794   1.398       .  A
C2789      H2796   1.084       .  S
C2790      C2791   1.418       .  A
C2791      C2792   1.402       .  A
C2791      N2798   1.437       .  S
C2792      C2793   1.405       .  A
C2792      H2797   1.084       .  S
C2793      C2794   1.414       .  A
C2794      N2795   1.432       .  S
N2795      H2799   1.043       .  S
N2795      H2800   1.046       .  S
N2798      H2801   1.042       .  S
N2798      H2802   1.045       .  S
C2803      C2804   1.405       .  A
C2803      C2808   1.400       .  A
C2803      H2810   1.084       .  S
C2804      C2805   1.420       .  A
C2805      C2806   1.403       .  A
C2805      N2812   1.440       .  S
C2806      C2807   1.401       .  A
C2806      H2811   1.084       .  S
C2807      C2808   1.413       .  A
C2808      N2809   1.439       .  S
N2809      H2813   1.046       .  S
N2809      H2814   1.043       .  S
N2812      H2815   1.042       .  S
N2812      H2816   1.046       .  S
C2817      C2818   1.401       .  A
C2817      C2822   1.400       .  A
C2817      H2824   1.084       .  S
C2818      C2819   1.415       .  A
C2819      C2820   1.401       .  A
C2819      N2826   1.438       .  S
C2820      C2821   1.405       .  A
C2820      H2825   1.084       .  S
C2821      C2822   1.418       .  A
C2822      N2823   1.433       .  S
N2823      H2827   1.043       .  S
N2823      H2828   1.046       .  S
N2826      H2829   1.043       .  S
N2826      H2830   1.046       .  S
C2831      C2832   1.407       .  A
C2831      C2836   1.406       .  A
C2831      H2838   1.082       .  S
C2832      C2833   1.412       .  A
C2833      C2834   1.406       .  A
C2833      N2840   1.437       .  S
C2834      C2835   1.407       .  A
C2834      H2839   1.083       .  S
C2835      C2836   1.412       .  A
C2836      N2837   1.437       .  S
N2837      H2841   1.046       .  S
N2837      H2842   1.046       .  S
N2840      H2843   1.046       .  S
N2840      H2844   1.046       .  S
C2845      C2846   1.406       .  A
C2845      C2850   1.400       .  A
C2845      H2852   1.084       .  S
C2846      C2847   1.419       .  A
C2847      C2848   1.404       .  A
C2847      N2854   1.439       .  S
C2848      C2849   1.402       .  A
C2848      H2853   1.084       .  S
C2849      C2850   1.413       .  A
C2850      N2851   1.439       .  S
N2851      H2855   1.046       .  S
N2851      H2856   1.043       .  S
N2854      H2857   1.041       .  S
N2854      H2858   1.046       .  S
C2859      C2860   1.404       .  A
C2859      C2864   1.399       .  A
C2859      H2866   1.084       .  S
C2860      C2861   1.418       .  A
C2861      C2862   1.404       .  A
C2861      N2868   1.439       .  S
C2862      C2863   1.402       .  A
C2862      H2867   1.084       .  S
C2863      C2864   1.414       .  A
C2864      N2865   1.439       .  S
N2865      H2869   1.045       .  S
N2865      H2870   1.043       .  S
N2868      H2871   1.041       .  S
N2868      H2872   1.046       .  S
C2873      C2874   1.402       .  A
C2873      C2878   1.402       .  A
C2873      H2880   1.084       .  S
C2874      C2875   1.419       .  A
C2875      C2876   1.402       .  A
C2875      N2882   1.440       .  S
C2876      C2877   1.402       .  A
C2876      H2881   1.084   1_554  S
C2877      C2878   1.419       .  A
C2878      N2879   1.440       .  S
N2879      H2883   1.046       .  S
N2879      H2884   1.042       .  S
N2882      H2885   1.042       .  S
N2882      H2886   1.046       .  S
C2887      C2888   1.400       .  A
C2887      C2892   1.399       .  A
C2887      H2894   1.084       .  S
C2888      C2889   1.415       .  A
C2889      C2890   1.402       .  A
C2889      N2896   1.439       .  S
C2890      C2891   1.407       .  A
C2890      H2895   1.084       .  S
C2891      C2892   1.418       .  A
C2892      N2893   1.433       .  S
N2893      H2897   1.042       .  S
N2893      H2898   1.045       .  S
N2896      H2899   1.043       .  S
N2896      H2900   1.046       .  S
C2901      C2902   1.404       .  A
C2901      C2906   1.400       .  A
C2901      H2908   1.084       .  S
C2902      C2903   1.419       .  A
C2903      C2904   1.403       .  A
C2903      N2910   1.439       .  S
C2904      C2905   1.402       .  A
C2904      H2909   1.084       .  S
C2905      C2906   1.413       .  A
C2906      N2907   1.439       .  S
N2907      H2911   1.046       .  S
N2907      H2912   1.043       .  S
N2910      H2913   1.042       .  S
N2910      H2914   1.046       .  S
C2915      C2916   1.402       .  A
C2915      C2920   1.403       .  A
C2915      H2922   1.084       .  S
C2916      C2917   1.414       .  A
C2917      C2918   1.400       .  A
C2917      N2924   1.439       .  S
C2918      C2919   1.404       .  A
C2918      H2923   1.084       .  S
C2919      C2920   1.418       .  A
C2920      N2921   1.438       .  S
N2921      H2925   1.045       .  S
N2921      H2926   1.042       .  S
N2924      H2927   1.043       .  S
N2924      H2928   1.046       .  S
C2929      C2930   1.411       .  A
C2929      C2934   1.406       .  A
C2929      H2936   1.082       .  S
C2930      C2931   1.420       .  A
C2931      C2932   1.401       .  A
C2931      N2938   1.430       .  S
C2932      C2933   1.403       .  A
C2932      H2937   1.084       .  S
C2933      C2934   1.408       .  A
C2934      N2935   1.438       .  S
N2935      H2939   1.046       .  S
N2935      H2940   1.046       .  S
N2938      H2941   1.043       .  S
N2938      H2942   1.045       .  S
C2943      C2944   1.406       .  A
C2943      C2948   1.400       .  A
C2943      H2950   1.084       .  S
C2944      C2945   1.415       .  A
C2945      C2946   1.401       .  A
C2945      N2952   1.432       .  S
C2946      C2947   1.406       .  A
C2946      H2951   1.084       .  S
C2947      C2948   1.414       .  A
C2948      N2949   1.432       .  S
N2949      H2953   1.043       .  S
N2949      H2954   1.045       .  S
N2952      H2955   1.045       .  S
N2952      H2956   1.043       .  S
C2957      C2958   1.401       .  A
C2957      C2962   1.400       .  A
C2957      H2964   1.084       .  S
C2958      C2959   1.415       .  A
C2959      C2960   1.401       .  A
C2959      N2966   1.438       .  S
C2960      C2961   1.404       .  A
C2960      H2965   1.084       .  S
C2961      C2962   1.417       .  A
C2962      N2963   1.433       .  S
N2963      H2967   1.043       .  S
N2963      H2968   1.046       .  S
N2966      H2969   1.043       .  S
N2966      H2970   1.046       .  S
C2971      C2972   1.412       .  A
C2971      C2976   1.413       .  A
C2971      H2978   1.081       .  S
C2972      C2973   1.428       .  A
C2973      C2974   1.394       .  A
C2973      N2980   1.429       .  S
C2974      C2975   1.400       .  A
C2974      H2979   1.084       .  S
C2975      C2976   1.414       .  A
C2976      N2977   1.437       .  S
N2977      H2981   1.045       .  S
N2977      H2982   1.046       .  S
N2980      H2983   1.045       .  S
N2980      H2984   1.043       .  S
C2985      C2986   1.407       .  A
C2985      C2990   1.400       .  A
C2985      H2992   1.084       .  S
C2986      C2987   1.414       .  A
C2987      C2988   1.401       .  A
C2987      N2994   1.432       .  S
C2988      C2989   1.406       .  A
C2988      H2993   1.084       .  S
C2989      C2990   1.413       .  A
C2990      N2991   1.432       .  S
N2991      H2995   1.043       .  S
N2991      H2996   1.045       .  S
N2994      H2997   1.045       .  S
N2994      H2998   1.043       .  S
C2999      C3000   1.411       .  A
C2999      C3004   1.394       .  A
C2999      H3006   1.078       .  S
C3000      C3001   1.424       .  A
C3001      C3002   1.406       .  A
C3001      N3008   1.429       .  S
C3002      C3003   1.406       .  A
C3002      H3007   1.084       .  S
C3003      C3004   1.416       .  A
C3004      N3005   1.435       .  S
N3005      H3009   1.045       .  S
N3005      H3010   1.042       .  S
N3008      H3011   1.045       .  S
N3008      H3012   1.044       .  S
C3013      C3014   1.409       .  A
C3013      C3018   1.402       .  A
C3013      H3020   1.083       .  S
C3014      C3015   1.413       .  A
C3015      C3016   1.408       .  A
C3015      N3022   1.437       .  S
C3016      C3017   1.405       .  A
C3016      H3021   1.084       .  S
C3017      C3018   1.415       .  A
C3018      N3019   1.440       .  S
N3019      H3023   1.046       .  S
N3019      H3024   1.042       .  S
N3022      H3025   1.046       .  S
N3022      H3026   1.046       .  S
C3027      C3028   1.402       .  A
C3027      C3032   1.400       .  A
C3027      H3034   1.084       .  S
C3028      C3029   1.415       .  A
C3029      C3030   1.402       .  A
C3029      N3036   1.439       .  S
C3030      C3031   1.406       .  A
C3030      H3035   1.084       .  S
C3031      C3032   1.416       .  A
C3032      N3033   1.433       .  S
N3033      H3037   1.042       .  S
N3033      H3038   1.045       .  S
N3036      H3039   1.043       .  S
N3036      H3040   1.046       .  S
C3041      C3042   1.401       .  A
C3041      C3046   1.401       .  A
C3041      H3048   1.084       .  S
C3042      C3043   1.419       .  A
C3043      C3044   1.402       .  A
C3043      N3050   1.438       .  S
C3044      C3045   1.402       .  A
C3044      H3049   1.084       .  S
C3045      C3046   1.419       .  A
C3046      N3047   1.437       .  S
N3047      H3051   1.045       .  S
N3047      H3052   1.043       .  S
N3050      H3053   1.043       .  S
N3050      H3054   1.045       .  S
C3055      C3056   1.405       .  A
C3055      C3060   1.407       .  A
C3055      H3062   1.083       .  S
C3056      C3057   1.415       .  A
C3057      C3058   1.403       .  A
C3057      N3064   1.438       .  S
C3058      C3059   1.401       .  A
C3058      H3063   1.084       .  S
C3059      C3060   1.418       .  A
C3060      N3061   1.439       .  S
N3061      H3065   1.046       .  S
N3061      H3066   1.043       .  S
N3064      H3067   1.046       .  S
N3064      H3068   1.046       .  S
C3069      C3070   1.403       .  A
C3069      C3074   1.400       .  A
C3069      H3076   1.084       .  S
C3070      C3071   1.415       .  A
C3071      C3072   1.402       .  A
C3071      N3078   1.439       .  S
C3072      C3073   1.407       .  A
C3072      H3077   1.084       .  S
C3073      C3074   1.415       .  A
C3074      N3075   1.433       .  S
N3075      H3079   1.042       .  S
N3075      H3080   1.045       .  S
N3078      H3081   1.042       .  S
N3078      H3082   1.046       .  S
C3083      C3084   1.401       .  A
C3083      C3088   1.399       .  A
C3083      H3090   1.084       .  S
C3084      C3085   1.416       .  A
C3085      C3086   1.400       .  A
C3085      N3092   1.433       .  S
C3086      C3087   1.402       .  A
C3086      H3091   1.084       .  S
C3087      C3088   1.418       .  A
C3088      N3089   1.432       .  S
N3089      H3093   1.042       .  S
N3089      H3094   1.045       .  S
N3092      H3095   1.045       .  S
N3092      H3096   1.043       .  S
C3097      C3098   1.403       .  A
C3097      C3102   1.397       .  A
C3097      H3104   1.084       .  S
C3098      C3099   1.412       .  A
C3099      C3100   1.402       .  A
C3099      N3106   1.438       .  S
C3100      C3101   1.402       .  A
C3100      H3105   1.084       .  S
C3101      C3102   1.416       .  A
C3102      N3103   1.437       .  S
N3103      H3107   1.045       .  S
N3103      H3108   1.043       .  S
N3106      H3109   1.046       .  S
N3106      H3110   1.046       .  S
C3111      C3112   1.407       .  A
C3111      C3116   1.400       .  A
C3111      H3118   1.084       .  S
C3112      C3113   1.420       .  A
C3113      C3114   1.406       .  A
C3113      N3120   1.439       .  S
C3114      C3115   1.403       .  A
C3114      H3119   1.084       .  S
C3115      C3116   1.413       .  A
C3116      N3117   1.440       .  S
N3117      H3121   1.046       .  S
N3117      H3122   1.043       .  S
N3120      H3123   1.040       .  S
N3120      H3124   1.046       .  S
C3125      C3126   1.410       .  A
C3125      C3130   1.414       .  A
C3125      H3132   1.082       .  S
C3126      C3127   1.424       .  A
C3127      C3128   1.393       .  A
C3127      N3134   1.431       .  S
C3128      C3129   1.403       .  A
C3128      H3133   1.083       .  S
C3129      C3130   1.416       .  A
C3130      N3131   1.437       .  S
N3131      H3135   1.046       .  S
N3131      H3136   1.046       .  S
N3134      H3137   1.045       .  S
N3134      H3138   1.043       .  S
C3139      C3140   1.401       .  A
C3139      C3144   1.399       .  A
C3139      H3146   1.083       .  S
C3140      C3141   1.417       .  A
C3141      C3142   1.407       .  A
C3141      N3148   1.437       .  S
C3142      C3143   1.405       .  A
C3142      H3147   1.083       .  S
C3143      C3144   1.423       .  A
C3144      N3145   1.431       .  S
N3145      H3149   1.045       .  S
N3145      H3150   1.043       .  S
N3148      H3151   1.045       .  S
N3148      H3152   1.046       .  S
C3153      C3154   1.402       .  A
C3153      C3158   1.397       .  A
C3153      H3160   1.084       .  S
C3154      C3155   1.416       .  A
C3155      C3156   1.400       .  A
C3155      N3162   1.438       .  S
C3156      C3157   1.402       .  A
C3156      H3161   1.084       .  S
C3157      C3158   1.417       .  A
C3158      N3159   1.440       .  S
N3159      H3163   1.046       .  S
N3159      H3164   1.041       .  S
N3162      H3165   1.042       .  S
N3162      H3166   1.045       .  S
C3167      C3168   1.400       .  A
C3167      C3172   1.398       .  A
C3167      H3174   1.084       .  S
C3168      C3169   1.418       .  A
C3169      C3170   1.404       .  A
C3169      N3176   1.438       .  S
C3170      C3171   1.402       .  A
C3170      H3175   1.084       .  S
C3171      C3172   1.417       .  A
C3172      N3173   1.433       .  S
N3173      H3177   1.042       .  S
N3173      H3178   1.046       .  S
N3176      H3179   1.043       .  S
N3176      H3180   1.045       .  S
C3181      C3182   1.402       .  A
C3181      C3186   1.403       .  A
C3181      H3188   1.084       .  S
C3182      C3183   1.421       .  A
C3183      C3184   1.404       .  A
C3183      N3190   1.440       .  S
C3184      C3185   1.402       .  A
C3184      H3189   1.084       .  S
C3185      C3186   1.420       .  A
C3186      N3187   1.440       .  S
N3187      H3191   1.046       .  S
N3187      H3192   1.042       .  S
N3190      H3193   1.042       .  S
N3190      H3194   1.046       .  S
C3195      C3196   1.404       .  A
C3195      C3200   1.406       .  A
C3195      H3202   1.084       .  S
C3196      C3197   1.420       .  A
C3197      C3198   1.401       .  A
C3197      N3204   1.440       .  S
C3198      C3199   1.400       .  A
C3198      H3203   1.084       .  S
C3199      C3200   1.416       .  A
C3200      N3201   1.438       .  S
N3201      H3205   1.046       .  S
N3201      H3206   1.043       .  S
N3204      H3207   1.042       .  S
N3204      H3208   1.046       .  S
C3209      C3210   1.401   1_565  A
C3209      C3214   1.397       .  A
C3209      H3216   1.084       .  S
C3210      C3211   1.416       .  A
C3211      C3212   1.398       .  A
C3211      N3218   1.440       .  S
C3212      C3213   1.405       .  A
C3212      H3217   1.084       .  S
C3213      C3214   1.416   1_545  A
C3214      N3215   1.431       .  S
N3215      H3219   1.043       .  S
N3215      H3220   1.045       .  S
N3218      H3221   1.041       .  S
N3218      H3222   1.046       .  S
C3223      C3224   1.403       .  A
C3223      C3228   1.401       .  A
C3223      H3230   1.084       .  S
C3224      C3225   1.422       .  A
C3225      C3226   1.400       .  A
C3225      N3232   1.431       .  S
C3226      C3227   1.402       .  A
C3226      H3231   1.084       .  S
C3227      C3228   1.420       .  A
C3228      N3229   1.432       .  S
N3229      H3233   1.042       .  S
N3229      H3234   1.045       .  S
N3232      H3235   1.045       .  S
N3232      H3236   1.042       .  S
C3237      C3238   1.406       .  A
C3237      C3242   1.403       .  A
C3237      H3244   1.084       .  S
C3238      C3239   1.420       .  A
C3239      C3240   1.402       .  A
C3239      N3246   1.440       .  S
C3240      C3241   1.400       .  A
C3240      H3245   1.084       .  S
C3241      C3242   1.415       .  A
C3242      N3243   1.439       .  S
N3243      H3247   1.046       .  S
N3243      H3248   1.043       .  S
N3246      H3249   1.042       .  S
N3246      H3250   1.046       .  S
C3251      C3252   1.408       .  A
C3251      C3256   1.414       .  A
C3251      H3258   1.082       .  S
C3252      C3253   1.424       .  A
C3253      C3254   1.393       .  A
C3253      N3260   1.431       .  S
C3254      C3255   1.403       .  A
C3254      H3259   1.083       .  S
C3255      C3256   1.418       .  A
C3256      N3257   1.437       .  S
N3257      H3261   1.046       .  S
N3257      H3262   1.045       .  S
N3260      H3263   1.045       .  S
N3260      H3264   1.043       .  S
C3265      C3266   1.400       .  A
C3265      C3270   1.400       .  A
C3265      H3272   1.084       .  S
C3266      C3267   1.416       .  A
C3267      C3268   1.403       .  A
C3267      N3274   1.438       .  S
C3268      C3269   1.405       .  A
C3268      H3273   1.084       .  S
C3269      C3270   1.420       .  A
C3270      N3271   1.434       .  S
N3271      H3275   1.042       .  S
N3271      H3276   1.045       .  S
N3274      H3277   1.043       .  S
N3274      H3278   1.046       .  S
C3279      C3280   1.405       .  A
C3279      C3284   1.403       .  A
C3279      H3286   1.084       .  S
C3280      C3281   1.416       .  A
C3281      C3282   1.403       .  A
C3281      N3288   1.439       .  S
C3282      C3283   1.405       .  A
C3282      H3287   1.084       .  S
C3283      C3284   1.417       .  A
C3284      N3285   1.439       .  S
N3285      H3289   1.046       .  S
N3285      H3290   1.041       .  S
N3288      H3291   1.041       .  S
N3288      H3292   1.046       .  S
C3293      C3294   1.402       .  A
C3293      C3298   1.401       .  A
C3293      H3300   1.084       .  S
C3294      C3295   1.415       .  A
C3295      C3296   1.402       .  A
C3295      N3302   1.438       .  S
C3296      C3297   1.404       .  A
C3296      H3301   1.084       .  S
C3297      C3298   1.417       .  A
C3298      N3299   1.433       .  S
N3299      H3303   1.043       .  S
N3299      H3304   1.046       .  S
N3302      H3305   1.043       .  S
N3302      H3306   1.046       .  S
C3307      C3308   1.402       .  A
C3307      C3312   1.400       .  A
C3307      H3314   1.083       .  S
C3308      C3309   1.417       .  A
C3309      C3310   1.408       .  A
C3309      N3316   1.437       .  S
C3310      C3311   1.405       .  A
C3310      H3315   1.083   1_455  S
C3311      C3312   1.422       .  A
C3312      N3313   1.431       .  S
N3313      H3317   1.045       .  S
N3313      H3318   1.043       .  S
N3316      H3319   1.045       .  S
N3316      H3320   1.046   1_455  S
C3321      C3322   1.406       .  A
C3321      C3326   1.402       .  A
C3321      H3328   1.083       .  S
C3322      C3323   1.418       .  A
C3323      C3324   1.409       .  A
C3323      N3330   1.438       .  S
C3324      C3325   1.401       .  A
C3324      H3329   1.084       .  S
C3325      C3326   1.416       .  A
C3326      N3327   1.439       .  S
N3327      H3331   1.046       .  S
N3327      H3332   1.043       .  S
N3330      H3333   1.046       .  S
N3330      H3334   1.046       .  S
C3335      C3336   1.402       .  A
C3335      C3340   1.402       .  A
C3335      H3342   1.084       .  S
C3336      C3337   1.415       .  A
C3337      C3338   1.401       .  A
C3337      N3344   1.439       .  S
C3338      C3339   1.407       .  A
C3338      H3343   1.084       .  S
C3339      C3340   1.420       .  A
C3340      N3341   1.433       .  S
N3341      H3345   1.042       .  S
N3341      H3346   1.045       .  S
N3344      H3347   1.043       .  S
N3344      H3348   1.046       .  S
C3349      C3350   1.403       .  A
C3349      C3354   1.396       .  A
C3349      H3356   1.085       .  S
C3350      C3351   1.418       .  A
C3351      C3352   1.400       .  A
C3351      N3358   1.439       .  S
C3352      C3353   1.402       .  A
C3352      H3357   1.084       .  S
C3353      C3354   1.415       .  A
C3354      N3355   1.438       .  S
N3355      H3359   1.045       .  S
N3355      H3360   1.041       .  S
N3358      H3361   1.040       .  S
N3358      H3362   1.046       .  S
C3363      C3364   1.404       .  A
C3363      C3368   1.406       .  A
C3363      H3370   1.084       .  S
C3364      C3365   1.415       .  A
C3365      C3366   1.403       .  A
C3365      N3372   1.438       .  S
C3366      C3367   1.401       .  A
C3366      H3371   1.084       .  S
C3367      C3368   1.417       .  A
C3368      N3369   1.439       .  S
N3369      H3373   1.046       .  S
N3369      H3374   1.043       .  S
N3372      H3375   1.046       .  S
N3372      H3376   1.046       .  S
C3377      C3378   1.401       .  A
C3377      C3382   1.402       .  A
C3377      H3384   1.084       .  S
C3378      C3379   1.418       .  A
C3379      C3380   1.403       .  A
C3379      N3386   1.440       .  S
C3380      C3381   1.401       .  A
C3380      H3385   1.084       .  S
C3381      C3382   1.418       .  A
C3382      N3383   1.440       .  S
N3383      H3387   1.046       .  S
N3383      H3388   1.042       .  S
N3386      H3389   1.042       .  S
N3386      H3390   1.046       .  S
C3391      C3392   1.406       .  A
C3391      C3396   1.400       .  A
C3391      H3398   1.084       .  S
C3392      C3393   1.420       .  A
C3393      C3394   1.405       .  A
C3393      N3400   1.439       .  S
C3394      C3395   1.402       .  A
C3394      H3399   1.084       .  S
C3395      C3396   1.413       .  A
C3396      N3397   1.439       .  S
N3397      H3401   1.046       .  S
N3397      H3402   1.043       .  S
N3400      H3403   1.040       .  S
N3400      H3404   1.046       .  S
C3405      C3406   1.402       .  A
C3405      C3410   1.406       .  A
C3405      H3412   1.083       .  S
C3406      C3407   1.416       .  A
C3407      C3408   1.406       .  A
C3407      N3414   1.438       .  S
C3408      C3409   1.402       .  A
C3408      H3413   1.083       .  S
C3409      C3410   1.415       .  A
C3410      N3411   1.438       .  S
N3411      H3415   1.046       .  S
N3411      H3416   1.046       .  S
N3414      H3417   1.046       .  S
N3414      H3418   1.046       .  S
C3419      C3420   1.409       .  A
C3419      C3424   1.402       .  A
C3419      H3426   1.084       .  S
C3420      C3421   1.413       .  A
C3421      C3422   1.407       .  A
C3421      N3428   1.437       .  S
C3422      C3423   1.403       .  A
C3422      H3427   1.084       .  S
C3423      C3424   1.414       .  A
C3424      N3425   1.439       .  S
N3425      H3429   1.046       .  S
N3425      H3430   1.042       .  S
N3428      H3431   1.045       .  S
N3428      H3432   1.046       .  S
C3433      C3434   1.405       .  A
C3433      C3438   1.403       .  A
C3433      H3440   1.084       .  S
C3434      C3435   1.421       .  A
C3435      C3436   1.403       .  A
C3435      N3442   1.440       .  S
C3436      C3437   1.401       .  A
C3436      H3441   1.084       .  S
C3437      C3438   1.415       .  A
C3438      N3439   1.439       .  S
N3439      H3443   1.045       .  S
N3439      H3444   1.043       .  S
N3442      H3445   1.042       .  S
N3442      H3446   1.046       .  S
C3447      C3448   1.401       .  A
C3447      C3452   1.397   1_556  A
C3447      H3454   1.084       .  S
C3448      C3449   1.416   1_565  A
C3449      C3450   1.398       .  A
C3449      N3456   1.440       .  S
C3450      C3451   1.405   1_556  A
C3450      H3455   1.084   1_556  S
C3451      C3452   1.416   1_545  A
C3452      N3453   1.431       .  S
N3453      H3457   1.043       .  S
N3453      H3458   1.045       .  S
N3456      H3459   1.041       .  S
N3456      H3460   1.046       .  S
C3461      C3462   1.398       .  A
C3461      C3466   1.396       .  A
C3461      H3468   1.085       .  S
C3462      C3463   1.417       .  A
C3463      C3464   1.408       .  A
C3463      N3470   1.438       .  S
C3464      C3465   1.409       .  A
C3464      H3469   1.083       .  S
C3465      C3466   1.424       .  A
C3466      N3467   1.432       .  S
N3467      H3471   1.042       .  S
N3467      H3472   1.045       .  S
N3470      H3473   1.043       .  S
N3470      H3474   1.046       .  S
C3475      C3476   1.407       .  A
C3475      C3480   1.413       .  A
C3475      H3482   1.083       .  S
C3476      C3477   1.422       .  A
C3477      C3478   1.394       .  A
C3477      N3484   1.432       .  S
C3478      C3479   1.404       .  A
C3478      H3483   1.083       .  S
C3479      C3480   1.418       .  A
C3480      N3481   1.437       .  S
N3481      H3485   1.046       .  S
N3481      H3486   1.045       .  S
N3484      H3487   1.045       .  S
N3484      H3488   1.042       .  S
C3489      C3490   1.402       .  A
C3489      C3494   1.407       .  A
C3489      H3496   1.083       .  S
C3490      C3491   1.418       .  A
C3491      C3492   1.407       .  A
C3491      N3498   1.437       .  S
C3492      C3493   1.401       .  A
C3492      H3497   1.083       .  S
C3493      C3494   1.416       .  A
C3494      N3495   1.438       .  S
N3495      H3499   1.046       .  S
N3495      H3500   1.046       .  S
N3498      H3501   1.046       .  S
N3498      H3502   1.046       .  S
C3503      C3504   1.406       .  A
C3503      C3508   1.402       .  A
C3503      H3510   1.084       .  S
C3504      C3505   1.418       .  A
C3505      C3506   1.408       .  A
C3505      N3512   1.438       .  S
C3506      C3507   1.401       .  A
C3506      H3511   1.084       .  S
C3507      C3508   1.416       .  A
C3508      N3509   1.439       .  S
N3509      H3513   1.046       .  S
N3509      H3514   1.043       .  S
N3512      H3515   1.046       .  S
N3512      H3516   1.046       .  S
C3517      C3518   1.403       .  A
C3517      C3522   1.396       .  A
C3517      H3524   1.084       .  S
C3518      C3519   1.419       .  A
C3519      C3520   1.401       .  A
C3519      N3526   1.440       .  S
C3520      C3521   1.402       .  A
C3520      H3525   1.084       .  S
C3521      C3522   1.414       .  A
C3522      N3523   1.433       .  S
N3523      H3527   1.042       .  S
N3523      H3528   1.046       .  S
N3526      H3529   1.042       .  S
N3526      H3530   1.046       .  S
C3531      C3532   1.403       .  A
C3531      C3536   1.400       .  A
C3531      H3538   1.084       .  S
C3532      C3533   1.419       .  A
C3533      C3534   1.400       .  A
C3533      N3540   1.432       .  S
C3534      C3535   1.403       .  A
C3534      H3539   1.084       .  S
C3535      C3536   1.420       .  A
C3536      N3537   1.432       .  S
N3537      H3541   1.042       .  S
N3537      H3542   1.045       .  S
N3540      H3543   1.045       .  S
N3540      H3544   1.042       .  S
C3545      C3546   1.401       .  A
C3545      C3550   1.396       .  A
C3545      H3552   1.085       .  S
C3546      C3547   1.417       .  A
C3547      C3548   1.406       .  A
C3547      N3554   1.438       .  S
C3548      C3549   1.405       .  A
C3548      H3553   1.084       .  S
C3549      C3550   1.419       .  A
C3550      N3551   1.433       .  S
N3551      H3555   1.042       .  S
N3551      H3556   1.045       .  S
N3554      H3557   1.043       .  S
N3554      H3558   1.046       .  S
C3559      C3560   1.402       .  A
C3559      C3564   1.402   1_556  A
C3559      H3566   1.084       .  S
C3560      C3561   1.412       .  A
C3561      C3562   1.393   1_556  A
C3561      N3568   1.433       .  S
C3562      C3563   1.403       .  A
C3562      H3567   1.084       .  S
C3563      C3564   1.418       .  A
C3564      N3565   1.439       .  S
N3565      H3569   1.046       .  S
N3565      H3570   1.042       .  S
N3568      H3571   1.046       .  S
N3568      H3572   1.043       .  S
C3573      C3574   1.408       .  A
C3573      C3578   1.405       .  A
C3573      H3580   1.083       .  S
C3574      C3575   1.415       .  A
C3575      C3576   1.404       .  A
C3575      N3582   1.438       .  S
C3576      C3577   1.401       .  A
C3576      H3581   1.084       .  S
C3577      C3578   1.416       .  A
C3578      N3579   1.439       .  S
N3579      H3583   1.046       .  S
N3579      H3584   1.042       .  S
N3582      H3585   1.045       .  S
N3582      H3586   1.046       .  S
C3587      C3588   1.405       .  A
C3587      C3592   1.402       .  A
C3587      H3594   1.084       .  S
C3588      C3589   1.417       .  A
C3589      C3590   1.403       .  A
C3589      N3596   1.439       .  S
C3590      C3591   1.402       .  A
C3590      H3595   1.084       .  S
C3591      C3592   1.414       .  A
C3592      N3593   1.439       .  S
N3593      H3597   1.046       .  S
N3593      H3598   1.043       .  S
N3596      H3599   1.042       .  S
N3596      H3600   1.046       .  S
C3601      C3602   1.402       .  A
C3601      C3606   1.401       .  A
C3601      H3608   1.084       .  S
C3602      C3603   1.417       .  A
C3603      C3604   1.399       .  A
C3603      N3610   1.432       .  S
C3604      C3605   1.402       .  A
C3604      H3609   1.084       .  S
C3605      C3606   1.418       .  A
C3606      N3607   1.432       .  S
N3607      H3611   1.042       .  S
N3607      H3612   1.045       .  S
N3610      H3613   1.045       .  S
N3610      H3614   1.042       .  S
C3615      C3616   1.413       .  A
C3615      C3620   1.409       .  A
C3615      H3622   1.081       .  S
C3616      C3617   1.429       .  A
C3617      C3618   1.393       .  A
C3617      N3624   1.428       .  S
C3618      C3619   1.397       .  A
C3618      H3623   1.085       .  S
C3619      C3620   1.418       .  A
C3620      N3621   1.439       .  S
N3621      H3625   1.046       .  S
N3621      H3626   1.042       .  S
N3624      H3627   1.045       .  S
N3624      H3628   1.044       .  S
C3629      C3630   1.404       .  A
C3629      C3634   1.396       .  A
C3629      H3636   1.084       .  S
C3630      C3631   1.417       .  A
C3631      C3632   1.399       .  A
C3631      N3638   1.432       .  S
C3632      C3633   1.400       .  A
C3632      H3637   1.084       .  S
C3633      C3634   1.414       .  A
C3634      N3635   1.440       .  S
N3635      H3639   1.046       .  S
N3635      H3640   1.042       .  S
N3638      H3641   1.045       .  S
N3638      H3642   1.043       .  S
C3643      C3644   1.402       .  A
C3643      C3648   1.405       .  A
C3643      H3650   1.084       .  S
C3644      C3645   1.415       .  A
C3645      C3646   1.399       .  A
C3645      N3652   1.438       .  S
C3646      C3647   1.406       .  A
C3646      H3651   1.084       .  S
C3647      C3648   1.422       .  A
C3648      N3649   1.437       .  S
N3649      H3653   1.045       .  S
N3649      H3654   1.043       .  S
N3652      H3655   1.043       .  S
N3652      H3656   1.046       .  S
C3657      C3658   1.401       .  A
C3657      C3662   1.405       .  A
C3657      H3664   1.083       .  S
C3658      C3659   1.416       .  A
C3659      C3660   1.407       .  A
C3659      N3666   1.438       .  S
C3660      C3661   1.402       .  A
C3660      H3665   1.083       .  S
C3661      C3662   1.416       .  A
C3662      N3663   1.438       .  S
N3663      H3667   1.046       .  S
N3663      H3668   1.046       .  S
N3666      H3669   1.046       .  S
N3666      H3670   1.046       .  S
C3671      C3672   1.400       .  A
C3671      C3676   1.400       .  A
C3671      H3678   1.084       .  S
C3672      C3673   1.415       .  A
C3673      C3674   1.402       .  A
C3673      N3680   1.438       .  S
C3674      C3675   1.403       .  A
C3674      H3679   1.084       .  S
C3675      C3676   1.420       .  A
C3676      N3677   1.438       .  S
N3677      H3681   1.045       .  S
N3677      H3682   1.042       .  S
N3680      H3683   1.043       .  S
N3680      H3684   1.046       .  S
C3685      C3686   1.407       .  A
C3685      C3690   1.413       .  A
C3685      H3692   1.083       .  S
C3686      C3687   1.422       .  A
C3687      C3688   1.393       .  A
C3687      N3694   1.432       .  S
C3688      C3689   1.404       .  A
C3688      H3693   1.082       .  S
C3689      C3690   1.419       .  A
C3690      N3691   1.437       .  S
N3691      H3695   1.046       .  S
N3691      H3696   1.045       .  S
N3694      H3697   1.045       .  S
N3694      H3698   1.042       .  S
C3699      C3700   1.407       .  A
C3699      C3704   1.406       .  A
C3699      H3706   1.082       .  S
C3700      C3701   1.412       .  A
C3701      C3702   1.407       .  A
C3701      N3708   1.437       .  S
C3702      C3703   1.408       .  A
C3702      H3707   1.082       .  S
C3703      C3704   1.413       .  A
C3704      N3705   1.437       .  S
N3705      H3709   1.046       .  S
N3705      H3710   1.046       .  S
N3708      H3711   1.046       .  S
N3708      H3712   1.046       .  S
C3713      C3714   1.404       .  A
C3713      C3718   1.397       .  A
C3713      H3720   1.084       .  S
C3714      C3715   1.413       .  A
C3715      C3716   1.403       .  A
C3715      N3722   1.437       .  S
C3716      C3717   1.401       .  A
C3716      H3721   1.084       .  S
C3717      C3718   1.415       .  A
C3718      N3719   1.438       .  S
N3719      H3723   1.045       .  S
N3719      H3724   1.042       .  S
N3722      H3725   1.046       .  S
N3722      H3726   1.046       .  S
C3727      C3728   1.401       .  A
C3727      C3732   1.403       .  A
C3727      H3734   1.084       .  S
C3728      C3729   1.415       .  A
C3729      C3730   1.401       .  A
C3729      N3736   1.439       .  S
C3730      C3731   1.408       .  A
C3730      H3735   1.084       .  S
C3731      C3732   1.422       .  A
C3732      N3733   1.433       .  S
N3733      H3737   1.042       .  S
N3733      H3738   1.045       .  S
N3736      H3739   1.043       .  S
N3736      H3740   1.046       .  S
C3741      C3742   1.402       .  A
C3741      C3746   1.404       .  A
C3741      H3748   1.084       .  S
C3742      C3743   1.414       .  A
C3743      C3744   1.401       .  A
C3743      N3750   1.438       .  S
C3744      C3745   1.405       .  A
C3744      H3749   1.084       .  S
C3745      C3746   1.420       .  A
C3746      N3747   1.438       .  S
N3747      H3751   1.045       .  S
N3747      H3752   1.042       .  S
N3750      H3753   1.043       .  S
N3750      H3754   1.046       .  S
C3755      C3756   1.406       .  A
C3755      C3760   1.403       .  A
C3755      H3762   1.084       .  S
C3756      C3757   1.418       .  A
C3757      C3758   1.403       .  A
C3757      N3764   1.440       .  S
C3758      C3759   1.406       .  A
C3758      H3763   1.084       .  S
C3759      C3760   1.417       .  A
C3760      N3761   1.440       .  S
N3761      H3765   1.046       .  S
N3761      H3766   1.041       .  S
N3764      H3767   1.041       .  S
N3764      H3768   1.046       .  S
C3769      C3770   1.403       .  A
C3769      C3774   1.397       .  A
C3769      H3776   1.084       .  S
C3770      C3771   1.415       .  A
C3771      C3772   1.398       .  A
C3771      N3778   1.432       .  S
C3772      C3773   1.401       .  A
C3772      H3777   1.084       .  S
C3773      C3774   1.415       .  A
C3774      N3775   1.440       .  S
N3775      H3779   1.046       .  S
N3775      H3780   1.042   1_655  S
N3778      H3781   1.045       .  S
N3778      H3782   1.043       .  S
C3783      C3784   1.406       .  A
C3783      C3788   1.399       .  A
C3783      H3790   1.084       .  S
C3784      C3785   1.421       .  A
C3785      C3786   1.406       .  A
C3785      N3792   1.439       .  S
C3786      C3787   1.402       .  A
C3786      H3791   1.084       .  S
C3787      C3788   1.414       .  A
C3788      N3789   1.440       .  S
N3789      H3793   1.046       .  S
N3789      H3794   1.043       .  S
N3792      H3795   1.040       .  S
N3792      H3796   1.046       .  S
C3797      C3798   1.405       .  A
C3797      C3802   1.403       .  A
C3797      H3804   1.084       .  S
C3798      C3799   1.418       .  A
C3799      C3800   1.402       .  A
C3799      N3806   1.440       .  S
C3800      C3801   1.405       .  A
C3800      H3805   1.084       .  S
C3801      C3802   1.418       .  A
C3802      N3803   1.440       .  S
N3803      H3807   1.046       .  S
N3803      H3808   1.041       .  S
N3806      H3809   1.041       .  S
N3806      H3810   1.046       .  S
C3811      C3812   1.407       .  A
C3811      C3816   1.402       .  A
C3811      H3818   1.084       .  S
C3812      C3813   1.420       .  A
C3813      C3814   1.403       .  A
C3813      N3820   1.440       .  S
C3814      C3815   1.400       .  A
C3814      H3819   1.084       .  S
C3815      C3816   1.414       .  A
C3816      N3817   1.439       .  S
N3817      H3821   1.046       .  S
N3817      H3822   1.043       .  S
N3820      H3823   1.042       .  S
N3820      H3824   1.046       .  S
C3825      C3826   1.403       .  A
C3825      C3830   1.394       .  A
C3825      H3832   1.084       .  S
C3826      C3827   1.419       .  A
C3827      C3828   1.401       .  A
C3827      N3834   1.440       .  S
C3828      C3829   1.402       .  A
C3828      H3833   1.084       .  S
C3829      C3830   1.411       .  A
C3830      N3831   1.432       .  S
N3831      H3835   1.043       .  S
N3831      H3836   1.046       .  S
N3834      H3837   1.040       .  S
N3834      H3838   1.046       .  S
C3839      C3840   1.400       .  A
C3839      C3844   1.398       .  A
C3839      H3846   1.084       .  S
C3840      C3841   1.415       .  A
C3841      C3842   1.403       .  A
C3841      N3848   1.439       .  S
C3842      C3843   1.405       .  A
C3842      H3847   1.084       .  S
C3843      C3844   1.417       .  A
C3844      N3845   1.433       .  S
N3845      H3849   1.043       .  S
N3845      H3850   1.045       .  S
N3848      H3851   1.043       .  S
N3848      H3852   1.046       .  S
C3853      C3854   1.405       .  A
C3853      C3858   1.399       .  A
C3853      H3860   1.084       .  S
C3854      C3855   1.415       .  A
C3855      C3856   1.400       .  A
C3855      N3862   1.432       .  S
C3856      C3857   1.406       .  A
C3856      H3861   1.084       .  S
C3857      C3858   1.415       .  A
C3858      N3859   1.432       .  S
N3859      H3863   1.043       .  S
N3859      H3864   1.045       .  S
N3862      H3865   1.045       .  S
N3862      H3866   1.043       .  S
C3867      C3868   1.406       .  A
C3867      C3872   1.403       .  A
C3867      H3874   1.084       .  S
C3868      C3869   1.420       .  A
C3869      C3870   1.401       .  A
C3869      N3876   1.440       .  S
C3870      C3871   1.400       .  A
C3870      H3875   1.084       .  S
C3871      C3872   1.415       .  A
C3872      N3873   1.439       .  S
N3873      H3877   1.046       .  S
N3873      H3878   1.043       .  S
N3876      H3879   1.042       .  S
N3876      H3880   1.046       .  S
C3881      C3882   1.404       .  A
C3881      C3886   1.396       .  A
C3881      H3888   1.083       .  S
C3882      C3883   1.417       .  A
C3883      C3884   1.400       .  A
C3883      N3890   1.431       .  S
C3884      C3885   1.402       .  A
C3884      H3889   1.084       .  S
C3885      C3886   1.415       .  A
C3886      N3887   1.441       .  S
N3887      H3891   1.046       .  S
N3887      H3892   1.042       .  S
N3890      H3893   1.045       .  S
N3890      H3894   1.043       .  S
C3895      C3896   1.401       .  A
C3895      C3900   1.401       .  A
C3895      H3902   1.084       .  S
C3896      C3897   1.415       .  A
C3897      C3898   1.403       .  A
C3897      N3904   1.439       .  S
C3898      C3899   1.404       .  A
C3898      H3903   1.084       .  S
C3899      C3900   1.417       .  A
C3900      N3901   1.438       .  S
N3901      H3905   1.045       .  S
N3901      H3906   1.043       .  S
N3904      H3907   1.043       .  S
N3904      H3908   1.046       .  S
C3909      C3910   1.403       .  A
C3909      C3914   1.396   1_565  A
C3909      H3916   1.084       .  S
C3910      C3911   1.418       .  A
C3911      C3912   1.400   1_565  A
C3911      N3918   1.440       .  S
C3912      C3913   1.402       .  A
C3912      H3917   1.084       .  S
C3913      C3914   1.413       .  A
C3914      N3915   1.433       .  S
N3915      H3919   1.043       .  S
N3915      H3920   1.045       .  S
N3918      H3921   1.042       .  S
N3918      H3922   1.046   1_565  S
C3923      C3924   1.405       .  A
C3923      C3928   1.399       .  A
C3923      H3930   1.084       .  S
C3924      C3925   1.420       .  A
C3925      C3926   1.404       .  A
C3925      N3932   1.439       .  S
C3926      C3927   1.401       .  A
C3926      H3931   1.084       .  S
C3927      C3928   1.413       .  A
C3928      N3929   1.439       .  S
N3929      H3933   1.046       .  S
N3929      H3934   1.043       .  S
N3932      H3935   1.040       .  S
N3932      H3936   1.046       .  S
C3937      C3938   1.407       .  A
C3937      C3942   1.407       .  A
C3937      H3944   1.083       .  S
C3938      C3939   1.411       .  A
C3939      C3940   1.405       .  A
C3939      N3946   1.437       .  S
C3940      C3941   1.406       .  A
C3940      H3945   1.083       .  S
C3941      C3942   1.412       .  A
C3942      N3943   1.437       .  S
N3943      H3947   1.046       .  S
N3943      H3948   1.046       .  S
N3946      H3949   1.046       .  S
N3946      H3950   1.046       .  S
C3951      C3952   1.401       .  A
C3951      C3956   1.402       .  A
C3951      H3958   1.084       .  S
C3952      C3953   1.414       .  A
C3953      C3954   1.402       .  A
C3953      N3960   1.439       .  S
C3954      C3955   1.409       .  A
C3954      H3959   1.084       .  S
C3955      C3956   1.420       .  A
C3956      N3957   1.437       .  S
N3957      H3961   1.045       .  S
N3957      H3962   1.043       .  S
N3960      H3963   1.043       .  S
N3960      H3964   1.046       .  S
C3965      C3966   1.403       .  A
C3965      C3970   1.399       .  A
C3965      H3972   1.084       .  S
C3966      C3967   1.412       .  A
C3967      C3968   1.402       .  A
C3967      N3974   1.438       .  S
C3968      C3969   1.401       .  A
C3968      H3973   1.084       .  S
C3969      C3970   1.416       .  A
C3970      N3971   1.438       .  S
N3971      H3975   1.045       .  S
N3971      H3976   1.043       .  S
N3974      H3977   1.046       .  S
N3974      H3978   1.046       .  S
C3979      C3980   1.402       .  A
C3979      C3984   1.403       .  A
C3979      H3986   1.084       .  S
C3980      C3981   1.419       .  A
C3981      C3982   1.400       .  A
C3981      N3988   1.440       .  S
C3982      C3983   1.399       .  A
C3982      H3987   1.084       .  S
C3983      C3984   1.415       .  A
C3984      N3985   1.439       .  S
N3985      H3989   1.046       .  S
N3985      H3990   1.043       .  S
N3988      H3991   1.042       .  S
N3988      H3992   1.046       .  S
C3993      C3994   1.401       .  A
C3993      C3998   1.402       .  A
C3993      H4000   1.084       .  S
C3994      C3995   1.419       .  A
C3995      C3996   1.402       .  A
C3995      N4002   1.440       .  S
C3996      C3997   1.401       .  A
C3996      H4001   1.084       .  S
C3997      C3998   1.419       .  A
C3998      N3999   1.440       .  S
N3999      H4003   1.046       .  S
N3999      H4004   1.042       .  S
N4002      H4005   1.042       .  S
N4002      H4006   1.046       .  S
C4007      C4008   1.404       .  A
C4007      C4012   1.398       .  A
C4007      H4014   1.083       .  S
C4008      C4009   1.412       .  A
C4009      C4010   1.402       .  A
C4009      N4016   1.438       .  S
C4010      C4011   1.402       .  A
C4010      H4015   1.084       .  S
C4011      C4012   1.415       .  A
C4012      N4013   1.438       .  S
N4013      H4017   1.045       .  S
N4013      H4018   1.043       .  S
N4016      H4019   1.046       .  S
N4016      H4020   1.046       .  S
C4021      C4022   1.402       .  A
C4021      C4026   1.401       .  A
C4021      H4028   1.084       .  S
C4022      C4023   1.415       .  A
C4023      C4024   1.401       .  A
C4023      N4030   1.439       .  S
C4024      C4025   1.405       .  A
C4024      H4029   1.084       .  S
C4025      C4026   1.416       .  A
C4026      N4027   1.433       .  S
N4027      H4031   1.043       .  S
N4027      H4032   1.045       .  S
N4030      H4033   1.043       .  S
N4030      H4034   1.046       .  S
C4035      C4036   1.402       .  A
C4035      C4040   1.406       .  A
C4035      H4042   1.083       .  S
C4036      C4037   1.416       .  A
C4037      C4038   1.406       .  A
C4037      N4044   1.438       .  S
C4038      C4039   1.402       .  A
C4038      H4043   1.083       .  S
C4039      C4040   1.415       .  A
C4040      N4041   1.438       .  S
N4041      H4045   1.046       .  S
N4041      H4046   1.046       .  S
N4044      H4047   1.046       .  S
N4044      H4048   1.046       .  S
C4049      C4050   1.399       .  A
C4049      C4054   1.405       .  A
C4049      H4056   1.084       .  S
C4050      C4051   1.412   1_556  A
C4051      C4052   1.396       .  A
C4051      N4058   1.439       .  S
C4052      C4053   1.407   1_554  A
C4052      H4057   1.082       .  S
C4053      C4054   1.416       .  A
C4054      N4055   1.437       .  S
N4055      H4059   1.046       .  S
N4055      H4060   1.045       .  S
N4058      H4061   1.043       .  S
N4058      H4062   1.045       .  S
C4063      C4064   1.411       .  A
C4063      C4068   1.413       .  A
C4063      H4070   1.082       .  S
C4064      C4065   1.427       .  A
C4065      C4066   1.395       .  A
C4065      N4072   1.430       .  S
C4066      C4067   1.398       .  A
C4066      H4071   1.085       .  S
C4067      C4068   1.411       .  A
C4068      N4069   1.437       .  S
N4069      H4073   1.045       .  S
N4069      H4074   1.045       .  S
N4072      H4075   1.043       .  S
N4072      H4076   1.045       .  S
C4077      C4078   1.401       .  A
C4077      C4082   1.400       .  A
C4077      H4084   1.084   1_554  S
C4078      C4079   1.417       .  A
C4079      C4080   1.400       .  A
C4079      N4086   1.432       .  S
C4080      C4081   1.402       .  A
C4080      H4085   1.084       .  S
C4081      C4082   1.418       .  A
C4082      N4083   1.433       .  S
N4083      H4087   1.042       .  S
N4083      H4088   1.045       .  S
N4086      H4089   1.045       .  S
N4086      H4090   1.043       .  S
C4091      C4092   1.403       .  A
C4091      C4096   1.396   1_565  A
C4091      H4098   1.084       .  S
C4092      C4093   1.418       .  A
C4093      C4094   1.400   1_565  A
C4093      N4100   1.440   1_655  S
C4094      C4095   1.402       .  A
C4094      H4099   1.084   1_655  S
C4095      C4096   1.414       .  A
C4096      N4097   1.433       .  S
N4097      H4101   1.043       .  S
N4097      H4102   1.045       .  S
N4100      H4103   1.042       .  S
N4100      H4104   1.046   1_565  S
C4105      C4106   1.402       .  A
C4105      C4110   1.400       .  A
C4105      H4112   1.084       .  S
C4106      C4107   1.417       .  A
C4107      C4108   1.400       .  A
C4107      N4114   1.438       .  S
C4108      C4109   1.403       .  A
C4108      H4113   1.084       .  S
C4109      C4110   1.411       .  A
C4110      N4111   1.438       .  S
N4111      H4115   1.046       .  S
N4111      H4116   1.046       .  S
N4114      H4117   1.042       .  S
N4114      H4118   1.045       .  S
C4119      C4120   1.405       .  A
C4119      C4124   1.400       .  A
C4119      H4126   1.084       .  S
C4120      C4121   1.418       .  A
C4121      C4122   1.403       .  A
C4121      N4128   1.439       .  S
C4122      C4123   1.402       .  A
C4122      H4127   1.084       .  S
C4123      C4124   1.413       .  A
C4124      N4125   1.439       .  S
N4125      H4129   1.046       .  S
N4125      H4130   1.043       .  S
N4128      H4131   1.041       .  S
N4128      H4132   1.046       .  S
C4133      C4134   1.401       .  A
C4133      C4138   1.401       .  A
C4133      H4140   1.084       .  S
C4134      C4135   1.415       .  A
C4135      C4136   1.402       .  A
C4135      N4142   1.439       .  S
C4136      C4137   1.402       .  A
C4136      H4141   1.084       .  S
C4137      C4138   1.415       .  A
C4138      N4139   1.439       .  S
N4139      H4143   1.046       .  S
N4139      H4144   1.043       .  S
N4142      H4145   1.043       .  S
N4142      H4146   1.046       .  S
C4147      C4148   1.406       .  A
C4147      C4152   1.403       .  A
C4147      H4154   1.084       .  S
C4148      C4149   1.420       .  A
C4149      C4150   1.403       .  A
C4149      N4156   1.440       .  S
C4150      C4151   1.401       .  A
C4150      H4155   1.084       .  S
C4151      C4152   1.414       .  A
C4152      N4153   1.439       .  S
N4153      H4157   1.046       .  S
N4153      H4158   1.043       .  S
N4156      H4159   1.042       .  S
N4156      H4160   1.046       .  S
C4161      C4162   1.407       .  A
C4161      C4166   1.398       .  A
C4161      H4168   1.083       .  S
C4162      C4163   1.419       .  A
C4163      C4164   1.397       .  A
C4163      N4170   1.431       .  S
C4164      C4165   1.400       .  A
C4164      H4169   1.084       .  S
C4165      C4166   1.414       .  A
C4166      N4167   1.438       .  S
N4167      H4171   1.045       .  S
N4167      H4172   1.042       .  S
N4170      H4173   1.043       .  S
N4170      H4174   1.045       .  S
C4175      C4176   1.404       .  A
C4175      C4180   1.405       .  A
C4175      H4182   1.084       .  S
C4176      C4177   1.415       .  A
C4177      C4178   1.404       .  A
C4177      N4184   1.438       .  S
C4178      C4179   1.401       .  A
C4178      H4183   1.084       .  S
C4179      C4180   1.418       .  A
C4180      N4181   1.439       .  S
N4181      H4185   1.046       .  S
N4181      H4186   1.042       .  S
N4184      H4187   1.046       .  S
N4184      H4188   1.046       .  S
C4189      C4190   1.403       .  A
C4189      C4194   1.398       .  A
C4189      H4196   1.083       .  S
C4190      C4191   1.412       .  A
C4191      C4192   1.403       .  A
C4191      N4198   1.438       .  S
C4192      C4193   1.403       .  A
C4192      H4197   1.084       .  S
C4193      C4194   1.416       .  A
C4194      N4195   1.437       .  S
N4195      H4199   1.045       .  S
N4195      H4200   1.043       .  S
N4198      H4201   1.046       .  S
N4198      H4202   1.046       .  S
C4203      C4204   1.407       .  A
C4203      C4208   1.400       .  A
C4203      H4210   1.083       .  S
C4204      C4205   1.414       .  A
C4205      C4206   1.410       .  A
C4205      N4212   1.437       .  S
C4206      C4207   1.405       .  A
C4206      H4211   1.084       .  S
C4207      C4208   1.416       .  A
C4208      N4209   1.440       .  S
N4209      H4213   1.046       .  S
N4209      H4214   1.042       .  S
N4212      H4215   1.046       .  S
N4212      H4216   1.046       .  S
C4217      C4218   1.410       .  A
C4217      C4222   1.407       .  A
C4217      H4224   1.080       .  S
C4218      C4219   1.415       .  A
C4219      C4220   1.408       .  A
C4219      N4226   1.435       .  S
C4220      C4221   1.410       .  A
C4220      H4225   1.081       .  S
C4221      C4222   1.413       .  A
C4222      N4223   1.435       .  S
N4223      H4227   1.046       .  S
N4223      H4228   1.045       .  S
N4226      H4229   1.045       .  S
N4226      H4230   1.046       .  S
C4231      C4232   1.401       .  A
C4231      C4236   1.400       .  A
C4231      H4238   1.084       .  S
C4232      C4233   1.415       .  A
C4233      C4234   1.402       .  A
C4233      N4240   1.439       .  S
C4234      C4235   1.406       .  A
C4234      H4239   1.084       .  S
C4235      C4236   1.417       .  A
C4236      N4237   1.433       .  S
N4237      H4241   1.043       .  S
N4237      H4242   1.045       .  S
N4240      H4243   1.043       .  S
N4240      H4244   1.046       .  S
C4245      C4246   1.404       .  A
C4245      C4250   1.398       .  A
C4245      H4252   1.083       .  S
C4246      C4247   1.413       .  A
C4247      C4248   1.403       .  A
C4247      N4254   1.438       .  S
C4248      C4249   1.402       .  A
C4248      H4253   1.084       .  S
C4249      C4250   1.415       .  A
C4250      N4251   1.438       .  S
N4251      H4255   1.045       .  S
N4251      H4256   1.043       .  S
N4254      H4257   1.045       .  S
N4254      H4258   1.046       .  S
C4259      C4260   1.401       .  A
C4259      C4264   1.402       .  A
C4259      H4266   1.084       .  S
C4260      C4261   1.413       .  A
C4261      C4262   1.400       .  A
C4261      N4268   1.439       .  S
C4262      C4263   1.406       .  A
C4262      H4267   1.084       .  S
C4263      C4264   1.419       .  A
C4264      N4265   1.437       .  S
N4265      H4269   1.045       .  S
N4265      H4270   1.043       .  S
N4268      H4271   1.043       .  S
N4268      H4272   1.046       .  S
C4273      C4274   1.405       .  A
C4273      C4278   1.402       .  A
C4273      H4280   1.084       .  S
C4274      C4275   1.418       .  A
C4275      C4276   1.402       .  A
C4275      N4282   1.440       .  S
C4276      C4277   1.405       .  A
C4276      H4281   1.084       .  S
C4277      C4278   1.417       .  A
C4278      N4279   1.440       .  S
N4279      H4283   1.046       .  S
N4279      H4284   1.041       .  S
N4282      H4285   1.041       .  S
N4282      H4286   1.046       .  S
C4287      C4288   1.403       .  A
C4287      C4292   1.396       .  A
C4287      H4294   1.084       .  S
C4288      C4289   1.419       .  A
C4289      C4290   1.400   1_655  A
C4289      N4296   1.440   1_655  S
C4290      C4291   1.403   1_455  A
C4290      H4295   1.084       .  S
C4291      C4292   1.413       .  A
C4292      N4293   1.432       .  S
N4293      H4297   1.043       .  S
N4293      H4298   1.045       .  S
N4296      H4299   1.040       .  S
N4296      H4300   1.046       .  S
C4301      C4302   1.401       .  A
C4301      C4306   1.401       .  A
C4301      H4308   1.084       .  S
C4302      C4303   1.415       .  A
C4303      C4304   1.402       .  A
C4303      N4310   1.439       .  S
C4304      C4305   1.406       .  A
C4304      H4309   1.084       .  S
C4305      C4306   1.420       .  A
C4306      N4307   1.433       .  S
N4307      H4311   1.042       .  S
N4307      H4312   1.045       .  S
N4310      H4313   1.043       .  S
N4310      H4314   1.046       .  S
C4315      C4316   1.401       .  A
C4315      C4320   1.405       .  A
C4315      H4322   1.084       .  S
C4316      C4317   1.413       .  A
C4317      C4318   1.395       .  A
C4317      N4324   1.439       .  S
C4318      C4319   1.404       .  A
C4318      H4323   1.083       .  S
C4319      C4320   1.413       .  A
C4320      N4321   1.437       .  S
N4321      H4325   1.046       .  S
N4321      H4326   1.046       .  S
N4324      H4327   1.043       .  S
N4324      H4328   1.045       .  S
C4329      C4330   1.406       .  A
C4329      C4334   1.399       .  A
C4329      H4336   1.084       .  S
C4330      C4331   1.420       .  A
C4331      C4332   1.406       .  A
C4331      N4338   1.439       .  S
C4332      C4333   1.402       .  A
C4332      H4337   1.084       .  S
C4333      C4334   1.413       .  A
C4334      N4335   1.439       .  S
N4335      H4339   1.046       .  S
N4335      H4340   1.043       .  S
N4338      H4341   1.040       .  S
N4338      H4342   1.046       .  S
C4343      C4344   1.402       .  A
C4343      C4348   1.403       .  A
C4343      H4350   1.084       .  S
C4344      C4345   1.420       .  A
C4345      C4346   1.402       .  A
C4345      N4352   1.440       .  S
C4346      C4347   1.401       .  A
C4346      H4351   1.084   1_455  S
C4347      C4348   1.419       .  A
C4348      N4349   1.440       .  S
N4349      H4353   1.046       .  S
N4349      H4354   1.042       .  S
N4352      H4355   1.042       .  S
N4352      H4356   1.046   1_455  S
C4357      C4358   1.401       .  A
C4357      C4362   1.399       .  A
C4357      H4364   1.084       .  S
C4358      C4359   1.415       .  A
C4359      C4360   1.403       .  A
C4359      N4366   1.439       .  S
C4360      C4361   1.406       .  A
C4360      H4365   1.084       .  S
C4361      C4362   1.416       .  A
C4362      N4363   1.433       .  S
N4363      H4367   1.043       .  S
N4363      H4368   1.045       .  S
N4366      H4369   1.043       .  S
N4366      H4370   1.046       .  S
C4371      C4372   1.406       .  A
C4371      C4376   1.399       .  A
C4371      H4378   1.084       .  S
C4372      C4373   1.421       .  A
C4373      C4374   1.406       .  A
C4373      N4380   1.439       .  S
C4374      C4375   1.402       .  A
C4374      H4379   1.084       .  S
C4375      C4376   1.414       .  A
C4376      N4377   1.440       .  S
N4377      H4381   1.046       .  S
N4377      H4382   1.043       .  S
N4380      H4383   1.040       .  S
N4380      H4384   1.046       .  S
C4385      C4386   1.403       .  A
C4385      C4390   1.397       .  A
C4385      H4392   1.084       .  S
C4386      C4387   1.416       .  A
C4387      C4388   1.399       .  A
C4387      N4394   1.437       .  S
C4388      C4389   1.401       .  A
C4388      H4393   1.084   1_556  S
C4389      C4390   1.415       .  A
C4390      N4391   1.440       .  S
N4391      H4395   1.046       .  S
N4391      H4396   1.042   1_655  S
N4394      H4397   1.042       .  S
N4394      H4398   1.045   1_556  S
C4399      C4400   1.400       .  A
C4399      C4404   1.398       .  A
C4399      H4406   1.084       .  S
C4400      C4401   1.418       .  A
C4401      C4402   1.405       .  A
C4401      N4408   1.438       .  S
C4402      C4403   1.404       .  A
C4402      H4407   1.084       .  S
C4403      C4404   1.419       .  A
C4404      N4405   1.433       .  S
N4405      H4409   1.042       .  S
N4405      H4410   1.045       .  S
N4408      H4411   1.043       .  S
N4408      H4412   1.045       .  S
C4413      C4414   1.401       .  A
C4413      C4418   1.400       .  A
C4413      H4420   1.084       .  S
C4414      C4415   1.414       .  A
C4415      C4416   1.404       .  A
C4415      N4422   1.438       .  S
C4416      C4417   1.409       .  A
C4416      H4421   1.084       .  S
C4417      C4418   1.421       .  A
C4418      N4419   1.433       .  S
N4419      H4423   1.042       .  S
N4419      H4424   1.045       .  S
N4422      H4425   1.043       .  S
N4422      H4426   1.046       .  S
C4427      C4428   1.402       .  A
C4427      C4432   1.400       .  A
C4427      H4434   1.084       .  S
C4428      C4429   1.420       .  A
C4429      C4430   1.401       .  A
C4429      N4436   1.431       .  S
C4430      C4431   1.405       .  A
C4430      H4435   1.083       .  S
C4431      C4432   1.424       .  A
C4432      N4433   1.431       .  S
N4433      H4437   1.043       .  S
N4433      H4438   1.045       .  S
N4436      H4439   1.045       .  S
N4436      H4440   1.043       .  S
C4441      C4442   1.403       .  A
C4441      C4446   1.404       .  A
C4441      H4448   1.084       .  S
C4442      C4443   1.414       .  A
C4443      C4444   1.393       .  A
C4443      N4450   1.433       .  S
C4444      C4445   1.403       .  A
C4444      H4449   1.084       .  S
C4445      C4446   1.420       .  A
C4446      N4447   1.439       .  S
N4447      H4451   1.046       .  S
N4447      H4452   1.041       .  S
N4450      H4453   1.045       .  S
N4450      H4454   1.042       .  S
C4455      C4456   1.409       .  A
C4455      C4460   1.414       .  A
C4455      H4462   1.083       .  S
C4456      C4457   1.422       .  A
C4457      C4458   1.392       .  A
C4457      N4464   1.432       .  S
C4458      C4459   1.403       .  A
C4458      H4463   1.082       .  S
C4459      C4460   1.417       .  A
C4460      N4461   1.437       .  S
N4461      H4465   1.046       .  S
N4461      H4466   1.046       .  S
N4464      H4467   1.045       .  S
N4464      H4468   1.043       .  S
C4469      C4470   1.404       .  A
C4469      C4474   1.398       .  A
C4469      H4476   1.084       .  S
C4470      C4471   1.412       .  A
C4471      C4472   1.403       .  A
C4471      N4478   1.437       .  S
C4472      C4473   1.402       .  A
C4472      H4477   1.084       .  S
C4473      C4474   1.416       .  A
C4474      N4475   1.437       .  S
N4475      H4479   1.045       .  S
N4475      H4480   1.042       .  S
N4478      H4481   1.046       .  S
N4478      H4482   1.046       .  S
C4483      C4484   1.402       .  A
C4483      C4488   1.401       .  A
C4483      H4490   1.084       .  S
C4484      C4485   1.415       .  A
C4485      C4486   1.402       .  A
C4485      N4492   1.439       .  S
C4486      C4487   1.404       .  A
C4486      H4491   1.084       .  S
C4487      C4488   1.416       .  A
C4488      N4489   1.433       .  S
N4489      H4493   1.043       .  S
N4489      H4494   1.046       .  S
N4492      H4495   1.043       .  S
N4492      H4496   1.046       .  S
C4497      C4498   1.401       .  A
C4497      C4502   1.402       .  A
C4497      H4504   1.084       .  S
C4498      C4499   1.418       .  A
C4499      C4500   1.402       .  A
C4499      N4506   1.438       .  S
C4500      C4501   1.402       .  A
C4500      H4505   1.084       .  S
C4501      C4502   1.417       .  A
C4502      N4503   1.438       .  S
N4503      H4507   1.045       .  S
N4503      H4508   1.043       .  S
N4506      H4509   1.043       .  S
N4506      H4510   1.045       .  S
C4511      C4512   1.403       .  A
C4511      C4516   1.396       .  A
C4511      H4518   1.084       .  S
C4512      C4513   1.418       .  A
C4513      C4514   1.399       .  A
C4513      N4520   1.440       .  S
C4514      C4515   1.400       .  A
C4514      H4519   1.084   1_655  S
C4515      C4516   1.412       .  A
C4516      N4517   1.433       .  S
N4517      H4521   1.043       .  S
N4517      H4522   1.046       .  S
N4520      H4523   1.042       .  S
N4520      H4524   1.046       .  S
C4525      C4526   1.399       .  A
C4525      C4530   1.400       .  A
C4525      H4532   1.084       .  S
C4526      C4527   1.416       .  A
C4527      C4528   1.402       .  A
C4527      N4534   1.438       .  S
C4528      C4529   1.405       .  A
C4528      H4533   1.084       .  S
C4529      C4530   1.421       .  A
C4530      N4531   1.433       .  S
N4531      H4535   1.042       .  S
N4531      H4536   1.045       .  S
N4534      H4537   1.043       .  S
N4534      H4538   1.046       .  S
C4539      C4540   1.403       .  A
C4539      C4544   1.395       .  A
C4539      H4546   1.084       .  S
C4540      C4541   1.419       .  A
C4541      C4542   1.400       .  A
C4541      N4548   1.440       .  S
C4542      C4543   1.403       .  A
C4542      H4547   1.084       .  S
C4543      C4544   1.413       .  A
C4544      N4545   1.432       .  S
N4545      H4549   1.043       .  S
N4545      H4550   1.045       .  S
N4548      H4551   1.040       .  S
N4548      H4552   1.046       .  S
C4553      C4554   1.403       .  A
C4553      C4558   1.404       .  A
C4553      H4560   1.084       .  S
C4554      C4555   1.421       .  A
C4555      C4556   1.402       .  A
C4555      N4562   1.440       .  S
C4556      C4557   1.400       .  A
C4556      H4561   1.084       .  S
C4557      C4558   1.416       .  A
C4558      N4559   1.439       .  S
N4559      H4563   1.046       .  S
N4559      H4564   1.043       .  S
N4562      H4565   1.042       .  S
N4562      H4566   1.046       .  S
C4567      C4568   1.402       .  A
C4567      C4572   1.400       .  A
C4567      H4574   1.084       .  S
C4568      C4569   1.417       .  A
C4569      C4570   1.400       .  A
C4569      N4576   1.432       .  S
C4570      C4571   1.402       .  A
C4570      H4575   1.084       .  S
C4571      C4572   1.418       .  A
C4572      N4573   1.433       .  S
N4573      H4577   1.042       .  S
N4573      H4578   1.045       .  S
N4576      H4579   1.045       .  S
N4576      H4580   1.043       .  S
C4581      C4582   1.403       .  A
C4581      C4586   1.403       .  A
C4581      H4588   1.084       .  S
C4582      C4583   1.413       .  A
C4583      C4584   1.394       .  A
C4583      N4590   1.433       .  S
C4584      C4585   1.402       .  A
C4584      H4589   1.084       .  S
C4585      C4586   1.418       .  A
C4586      N4587   1.439       .  S
N4587      H4591   1.046       .  S
N4587      H4592   1.042       .  S
N4590      H4593   1.045       .  S
N4590      H4594   1.043       .  S
C4595      C4596   1.402       .  A
C4595      C4600   1.404       .  A
C4595      H4602   1.084       .  S
C4596      C4597   1.418       .  A
C4597      C4598   1.402       .  A
C4597      N4604   1.439       .  S
C4598      C4599   1.402       .  A
C4598      H4603   1.084       .  S
C4599      C4600   1.416       .  A
C4600      N4601   1.438       .  S
N4601      H4605   1.046       .  S
N4601      H4606   1.043       .  S
N4604      H4607   1.043       .  S
N4604      H4608   1.046       .  S
C4609      C4610   1.403       .  A
C4609      C4614   1.399       .  A
C4609      H4616   1.084       .  S
C4610      C4611   1.413       .  A
C4611      C4612   1.403       .  A
C4611      N4618   1.438       .  S
C4612      C4613   1.402       .  A
C4612      H4617   1.084       .  S
C4613      C4614   1.416       .  A
C4614      N4615   1.437       .  S
N4615      H4619   1.045       .  S
N4615      H4620   1.043       .  S
N4618      H4621   1.046       .  S
N4618      H4622   1.046       .  S
C4623      C4624   1.405       .  A
C4623      C4628   1.398       .  A
C4623      H4630   1.083       .  S
C4624      C4625   1.412       .  A
C4625      C4626   1.409       .  A
C4625      N4632   1.437       .  S
C4626      C4627   1.404       .  A
C4626      H4631   1.084       .  S
C4627      C4628   1.417       .  A
C4628      N4629   1.441       .  S
N4629      H4633   1.046       .  S
N4629      H4634   1.042       .  S
N4632      H4635   1.046       .  S
N4632      H4636   1.046       .  S
C4637      C4638   1.406       .  A
C4637      C4642   1.399       .  A
C4637      H4644   1.083       .  S
C4638      C4639   1.410       .  A
C4639      C4640   1.406       .  A
C4639      N4646   1.431       .  S
C4640      C4641   1.409       .  A
C4640      H4645   1.083       .  S
C4641      C4642   1.418       .  A
C4642      N4643   1.431       .  S
N4643      H4647   1.043       .  S
N4643      H4648   1.045       .  S
N4646      H4649   1.046       .  S
N4646      H4650   1.045       .  S
C4651      C4652   1.401   1_565  A
C4651      C4656   1.407   1_565  A
C4651      H4658   1.084       .  S
C4652      C4653   1.413       .  A
C4653      C4654   1.395       .  A
C4653      N4660   1.439       .  S
C4654      C4655   1.405       .  A
C4654      H4659   1.083       .  S
C4655      C4656   1.415       .  A
C4656      N4657   1.437   1_545  S
N4657      H4661   1.046       .  S
N4657      H4662   1.045   1_565  S
N4660      H4663   1.043       .  S
N4660      H4664   1.045       .  S
C4665      C4666   1.409       .  A
C4665      C4670   1.412       .  A
C4665      H4672   1.082       .  S
C4666      C4667   1.423       .  A
C4667      C4668   1.393       .  A
C4667      N4674   1.431       .  S
C4668      C4669   1.403       .  A
C4668      H4673   1.083       .  S
C4669      C4670   1.416       .  A
C4670      N4671   1.437       .  S
N4671      H4675   1.046       .  S
N4671      H4676   1.045       .  S
N4674      H4677   1.045       .  S
N4674      H4678   1.043       .  S
C4679      C4680   1.404       .  A
C4679      C4684   1.396       .  A
C4679      H4686   1.084       .  S
C4680      C4681   1.419       .  A
C4681      C4682   1.400       .  A
C4681      N4688   1.440       .  S
C4682      C4683   1.402       .  A
C4682      H4687   1.084       .  S
C4683      C4684   1.411       .  A
C4684      N4685   1.432       .  S
N4685      H4689   1.044       .  S
N4685      H4690   1.046       .  S
N4688      H4691   1.040       .  S
N4688      H4692   1.046       .  S
C4693      C4694   1.406       .  A
C4693      C4698   1.399       .  A
C4693      H4700   1.083       .  S
C4694      C4695   1.414       .  A
C4695      C4696   1.411       .  A
C4695      N4702   1.437       .  S
C4696      C4697   1.404       .  A
C4696      H4701   1.084       .  S
C4697      C4698   1.415       .  A
C4698      N4699   1.440       .  S
N4699      H4703   1.046       .  S
N4699      H4704   1.042       .  S
N4702      H4705   1.046       .  S
N4702      H4706   1.046       .  S
C4707      C4708   1.406       .  A
C4707      C4712   1.402       .  A
C4707      H4714   1.084       .  S
C4708      C4709   1.413       .  A
C4709      C4710   1.398       .  A
C4709      N4716   1.432       .  S
C4710      C4711   1.406       .  A
C4710      H4715   1.084       .  S
C4711      C4712   1.418       .  A
C4712      N4713   1.436       .  S
N4713      H4717   1.045       .  S
N4713      H4718   1.042       .  S
N4716      H4719   1.045       .  S
N4716      H4720   1.043       .  S
C4721      C4722   1.403       .  A
C4721      C4726   1.395   1_565  A
C4721      H4728   1.084       .  S
C4722      C4723   1.418       .  A
C4723      C4724   1.400   1_565  A
C4723      N4730   1.440       .  S
C4724      C4725   1.402       .  A
C4724      H4729   1.084       .  S
C4725      C4726   1.413       .  A
C4726      N4727   1.432       .  S
N4727      H4731   1.043       .  S
N4727      H4732   1.045       .  S
N4730      H4733   1.040       .  S
N4730      H4734   1.046       .  S
C4735      C4736   1.404       .  A
C4735      C4740   1.401       .  A
C4735      H4742   1.084       .  S
C4736      C4737   1.418       .  A
C4737      C4738   1.403       .  A
C4737      N4744   1.439       .  S
C4738      C4739   1.402       .  A
C4738      H4743   1.084       .  S
C4739      C4740   1.414       .  A
C4740      N4741   1.439       .  S
N4741      H4745   1.046       .  S
N4741      H4746   1.043       .  S
N4744      H4747   1.041       .  S
N4744      H4748   1.046       .  S
C4749      C4750   1.401       .  A
C4749      C4754   1.399       .  A
C4749      H4756   1.084       .  S
C4750      C4751   1.416       .  A
C4751      C4752   1.401       .  A
C4751      N4758   1.438       .  S
C4752      C4753   1.404       .  A
C4752      H4757   1.084       .  S
C4753      C4754   1.413       .  A
C4754      N4755   1.438       .  S
N4755      H4759   1.046       .  S
N4755      H4760   1.046       .  S
N4758      H4761   1.042       .  S
N4758      H4762   1.045       .  S
C4763      C4764   1.402       .  A
C4763      C4768   1.402       .  A
C4763      H4770   1.084       .  S
C4764      C4765   1.419       .  A
C4765      C4766   1.402       .  A
C4765      N4772   1.440       .  S
C4766      C4767   1.400       .  A
C4766      H4771   1.084       .  S
C4767      C4768   1.416       .  A
C4768      N4769   1.439       .  S
N4769      H4773   1.046       .  S
N4769      H4774   1.043       .  S
N4772      H4775   1.043       .  S
N4772      H4776   1.046       .  S
C4777      C4778   1.406       .  A
C4777      C4782   1.400       .  A
C4777      H4784   1.084       .  S
C4778      C4779   1.414       .  A
C4779      C4780   1.400       .  A
C4779      N4786   1.432       .  S
C4780      C4781   1.406       .  A
C4780      H4785   1.084       .  S
C4781      C4782   1.415       .  A
C4782      N4783   1.432       .  S
N4783      H4787   1.043       .  S
N4783      H4788   1.045       .  S
N4786      H4789   1.045       .  S
N4786      H4790   1.043       .  S
C4791      C4792   1.402   1_554  A
C4791      C4796   1.395       .  A
C4791      H4798   1.084       .  S
C4792      C4793   1.417       .  A
C4793      C4794   1.399       .  A
C4793      N4800   1.440       .  S
C4794      C4795   1.401       .  A
C4794      H4799   1.084       .  S
C4795      C4796   1.413   1_556  A
C4796      N4797   1.433       .  S
N4797      H4801   1.043       .  S
N4797      H4802   1.045       .  S
N4800      H4803   1.042       .  S
N4800      H4804   1.046       .  S
C4805      C4806   1.403       .  A
C4805      C4810   1.398       .  A
C4805      H4812   1.084       .  S
C4806      C4807   1.418       .  A
C4807      C4808   1.399       .  A
C4807      N4814   1.440       .  S
C4808      C4809   1.402       .  A
C4808      H4813   1.085       .  S
C4809      C4810   1.415       .  A
C4810      N4811   1.438       .  S
N4811      H4815   1.045       .  S
N4811      H4816   1.041       .  S
N4814      H4817   1.040       .  S
N4814      H4818   1.046       .  S
C4819      C4820   1.411       .  A
C4819      C4824   1.414       .  A
C4819      H4826   1.082       .  S
C4820      C4821   1.425       .  A
C4821      C4822   1.392       .  A
C4821      N4828   1.430       .  S
C4822      C4823   1.401       .  A
C4822      H4827   1.083       .  S
C4823      C4824   1.415       .  A
C4824      N4825   1.437       .  S
N4825      H4829   1.046       .  S
N4825      H4830   1.046       .  S
N4828      H4831   1.045       .  S
N4828      H4832   1.043       .  S
C4833      C4834   1.401       .  A
C4833      C4838   1.402       .  A
C4833      H4840   1.084       .  S
C4834      C4835   1.417       .  A
C4835      C4836   1.399       .  A
C4835      N4842   1.433       .  S
C4836      C4837   1.402       .  A
C4836      H4841   1.084       .  S
C4837      C4838   1.420       .  A
C4838      N4839   1.437       .  S
N4839      H4843   1.045       .  S
N4839      H4844   1.042       .  S
N4842      H4845   1.046       .  S
N4842      H4846   1.042       .  S
C4847      C4848   1.403       .  A
C4847      C4852   1.398       .  A
C4847      H4854   1.084       .  S
C4848      C4849   1.412   1_556  A
C4849      C4850   1.402       .  A
C4849      N4856   1.438       .  S
C4850      C4851   1.400   1_654  A
C4850      H4855   1.084   1_655  S
C4851      C4852   1.414   1_455  A
C4852      N4853   1.438       .  S
N4853      H4857   1.045       .  S
N4853      H4858   1.043   1_655  S
N4856      H4859   1.045       .  S
N4856      H4860   1.046       .  S
C4861      C4862   1.401       .  A
C4861      C4866   1.396       .  A
C4861      H4868   1.084       .  S
C4862      C4863   1.411       .  A
C4863      C4864   1.404       .  A
C4863      N4870   1.438       .  S
C4864      C4865   1.403       .  A
C4864      H4869   1.084       .  S
C4865      C4866   1.416       .  A
C4866      N4867   1.437       .  S
N4867      H4871   1.045       .  S
N4867      H4872   1.043       .  S
N4870      H4873   1.046       .  S
N4870      H4874   1.046       .  S
C4875      C4876   1.410       .  A
C4875      C4880   1.402       .  A
C4875      H4882   1.080       .  S
C4876      C4877   1.420       .  A
C4877      C4878   1.403       .  A
C4877      N4884   1.430       .  S
C4878      C4879   1.406       .  A
C4878      H4883   1.083       .  S
C4879      C4880   1.413       .  A
C4880      N4881   1.439       .  S
N4881      H4885   1.046       .  S
N4881      H4886   1.046       .  S
N4884      H4887   1.045       .  S
N4884      H4888   1.043       .  S
C4889      C4890   1.407       .  A
C4889      C4894   1.407       .  A
C4889      H4896   1.082       .  S
C4890      C4891   1.411       .  A
C4891      C4892   1.405       .  A
C4891      N4898   1.437       .  S
C4892      C4893   1.409       .  A
C4892      H4897   1.082       .  S
C4893      C4894   1.413       .  A
C4894      N4895   1.437   1_554  S
N4895      H4899   1.046       .  S
N4895      H4900   1.045       .  S
N4898      H4901   1.046       .  S
N4898      H4902   1.046       .  S
C4903      C4904   1.398       .  A
C4903      C4908   1.403       .  A
C4903      H4910   1.084       .  S
C4904      C4905   1.409       .  A
C4905      C4906   1.399       .  A
C4905      N4912   1.433       .  S
C4906      C4907   1.411       .  A
C4906      H4911   1.083       .  S
C4907      C4908   1.427       .  A
C4908      N4909   1.432       .  S
N4909      H4913   1.042       .  S
N4909      H4914   1.045       .  S
N4912      H4915   1.045       .  S
N4912      H4916   1.045       .  S
C4917      C4918   1.403       .  A
C4917      C4922   1.395       .  A
C4917      H4924   1.084       .  S
C4918      C4919   1.419       .  A
C4919      C4920   1.400       .  A
C4919      N4926   1.440       .  S
C4920      C4921   1.401       .  A
C4920      H4925   1.084       .  S
C4921      C4922   1.412       .  A
C4922      N4923   1.433       .  S
N4923      H4927   1.043       .  S
N4923      H4928   1.046       .  S
N4926      H4929   1.042       .  S
N4926      H4930   1.046       .  S
C4931      C4932   1.402       .  A
C4931      C4936   1.400       .  A
C4931      H4938   1.084       .  S
C4932      C4933   1.414       .  A
C4933      C4934   1.401       .  A
C4933      N4940   1.439       .  S
C4934      C4935   1.408       .  A
C4934      H4939   1.084       .  S
C4935      C4936   1.417       .  A
C4936      N4937   1.433       .  S
N4937      H4941   1.042       .  S
N4937      H4942   1.045       .  S
N4940      H4943   1.043       .  S
N4940      H4944   1.046       .  S
C4945      C4946   1.404       .  A
C4945      C4950   1.398   1_556  A
C4945      H4952   1.084       .  S
C4946      C4947   1.413       .  A
C4947      C4948   1.404       .  A
C4947      N4954   1.437       .  S
C4948      C4949   1.402   1_556  A
C4948      H4953   1.084   1_556  S
C4949      C4950   1.416       .  A
C4950      N4951   1.438       .  S
N4951      H4955   1.045       .  S
N4951      H4956   1.042       .  S
N4954      H4957   1.046       .  S
N4954      H4958   1.046       .  S
C4959      C4960   1.401       .  A
C4959      C4964   1.401       .  A
C4959      H4966   1.084       .  S
C4960      C4961   1.415       .  A
C4961      C4962   1.402       .  A
C4961      N4968   1.438       .  S
C4962      C4963   1.405       .  A
C4962      H4967   1.084       .  S
C4963      C4964   1.419       .  A
C4964      N4965   1.433       .  S
N4965      H4969   1.043       .  S
N4965      H4970   1.045       .  S
N4968      H4971   1.043       .  S
N4968      H4972   1.046       .  S
C4973      C4974   1.402       .  A
C4973      C4978   1.399       .  A
C4973      H4980   1.084       .  S
C4974      C4975   1.418       .  A
C4975      C4976   1.399       .  A
C4975      N4982   1.432       .  S
C4976      C4977   1.402       .  A
C4976      H4981   1.084       .  S
C4977      C4978   1.419       .  A
C4978      N4979   1.432       .  S
N4979      H4983   1.042       .  S
N4979      H4984   1.045       .  S
N4982      H4985   1.045       .  S
N4982      H4986   1.042       .  S
C4987      C4988   1.405       .  A
C4987      C4992   1.397       .  A
C4987      H4994   1.084       .  S
C4988      C4989   1.418       .  A
C4989      C4990   1.398       .  A
C4989      N4996   1.432       .  S
C4990      C4991   1.400       .  A
C4990      H4995   1.084       .  S
C4991      C4992   1.414       .  A
C4992      N4993   1.440       .  S
N4993      H4997   1.046       .  S
N4993      H4998   1.042       .  S
N4996      H4999   1.045       .  S
N4996      H5000   1.043       .  S
C5001      C5002   1.405       .  A
C5001      C5006   1.402       .  A
C5001      H5008   1.084       .  S
C5002      C5003   1.417       .  A
C5003      C5004   1.404       .  A
C5003      N5010   1.438       .  S
C5004      C5005   1.403       .  A
C5004      H5009   1.084       .  S
C5005      C5006   1.414       .  A
C5006      N5007   1.439       .  S
N5007      H5011   1.046       .  S
N5007      H5012   1.043       .  S
N5010      H5013   1.042       .  S
N5010      H5014   1.046       .  S
C5015      C5016   1.403       .  A
C5015      C5020   1.395       .  A
C5015      H5022   1.084       .  S
C5016      C5017   1.418       .  A
C5017      C5018   1.400       .  A
C5017      N5024   1.440       .  S
C5018      C5019   1.403       .  A
C5018      H5023   1.084       .  S
C5019      C5020   1.414       .  A
C5020      N5021   1.432       .  S
N5021      H5025   1.043       .  S
N5021      H5026   1.045       .  S
N5024      H5027   1.040       .  S
N5024      H5028   1.046       .  S
C5029      C5030   1.403       .  A
C5029      C5034   1.401       .  A
C5029      H5036   1.084       .  S
C5030      C5031   1.415       .  A
C5031      C5032   1.403       .  A
C5031      N5038   1.439       .  S
C5032      C5033   1.405       .  A
C5032      H5037   1.084       .  S
C5033      C5034   1.415       .  A
C5034      N5035   1.433       .  S
N5035      H5039   1.043       .  S
N5035      H5040   1.045       .  S
N5038      H5041   1.043       .  S
N5038      H5042   1.046       .  S
C5043      C5044   1.400       .  A
C5043      C5048   1.399       .  A
C5043      H5050   1.084       .  S
C5044      C5045   1.416       .  A
C5045      C5046   1.408       .  A
C5045      N5052   1.437       .  S
C5046      C5047   1.406       .  A
C5046      H5051   1.083       .  S
C5047      C5048   1.424       .  A
C5048      N5049   1.431       .  S
N5049      H5053   1.045       .  S
N5049      H5054   1.043       .  S
N5052      H5055   1.045       .  S
N5052      H5056   1.046       .  S
C5057      C5058   1.403       .  A
C5057      C5062   1.395       .  A
C5057      H5064   1.084       .  S
C5058      C5059   1.418       .  A
C5059      C5060   1.399       .  A
C5059      N5066   1.440   1_655  S
C5060      C5061   1.403       .  A
C5060      H5065   1.084   1_655  S
C5061      C5062   1.413       .  A
C5062      N5063   1.432       .  S
N5063      H5067   1.043       .  S
N5063      H5068   1.045       .  S
N5066      H5069   1.041       .  S
N5066      H5070   1.046       .  S
C5071      C5072   1.400       .  A
C5071      C5076   1.402       .  A
C5071      H5078   1.084       .  S
C5072      C5073   1.416       .  A
C5073      C5074   1.403       .  A
C5073      N5080   1.439       .  S
C5074      C5075   1.404       .  A
C5074      H5079   1.084       .  S
C5075      C5076   1.419       .  A
C5076      N5077   1.438       .  S
N5077      H5081   1.046       .  S
N5077      H5082   1.042       .  S
N5080      H5083   1.043       .  S
N5080      H5084   1.046       .  S
C5085      C5086   1.402       .  A
C5085      C5090   1.397       .  A
C5085      H5092   1.084       .  S
C5086      C5087   1.416       .  A
C5087      C5088   1.400       .  A
C5087      N5094   1.438       .  S
C5088      C5089   1.402       .  A
C5088      H5093   1.084       .  S
C5089      C5090   1.416       .  A
C5090      N5091   1.440       .  S
N5091      H5095   1.046       .  S
N5091      H5096   1.041       .  S
N5094      H5097   1.042       .  S
N5094      H5098   1.045       .  S
C5099      C5100   1.400       .  A
C5099      C5104   1.397       .  A
C5099      H5106   1.084       .  S
C5100      C5101   1.416       .  A
C5101      C5102   1.405       .  A
C5101      N5108   1.438       .  S
C5102      C5103   1.407       .  A
C5102      H5107   1.084       .  S
C5103      C5104   1.418       .  A
C5104      N5105   1.434       .  S
N5105      H5109   1.043       .  S
N5105      H5110   1.045       .  S
N5108      H5111   1.043       .  S
N5108      H5112   1.046       .  S
C5113      C5114   1.406       .  A
C5113      C5118   1.403   1_455  A
C5113      H5120   1.084       .  S
C5114      C5115   1.418       .  A
C5115      C5116   1.403       .  A
C5115      N5122   1.440       .  S
C5116      C5117   1.405       .  A
C5116      H5121   1.084       .  S
C5117      C5118   1.417   1_455  A
C5118      N5119   1.439       .  S
N5119      H5123   1.046       .  S
N5119      H5124   1.041       .  S
N5122      H5125   1.041       .  S
N5122      H5126   1.046       .  S
C5127      C5128   1.408       .  A
C5127      C5132   1.413       .  A
C5127      H5134   1.082       .  S
C5128      C5129   1.423       .  A
C5129      C5130   1.393       .  A
C5129      N5136   1.431       .  S
C5130      C5131   1.404       .  A
C5130      H5135   1.082       .  S
C5131      C5132   1.419       .  A
C5132      N5133   1.437       .  S
N5133      H5137   1.046       .  S
N5133      H5138   1.045       .  S
N5136      H5139   1.045       .  S
N5136      H5140   1.043       .  S
C5141      C5142   1.400       .  A
C5141      C5146   1.400   1_545  A
C5141      H5148   1.084       .  S
C5142      C5143   1.416       .  A
C5143      C5144   1.400   1_545  A
C5143      N5150   1.439   1_655  S
C5144      C5145   1.404       .  A
C5144      H5149   1.084   1_655  S
C5145      C5146   1.410       .  A
C5146      N5147   1.432       .  S
N5147      H5151   1.046       .  S
N5147      H5152   1.046       .  S
N5150      H5153   1.042       .  S
N5150      H5154   1.046       .  S
C5155      C5156   1.404       .  A
C5155      C5160   1.398       .  A
C5155      H5162   1.084       .  S
C5156      C5157   1.419       .  A
C5157      C5158   1.405       .  A
C5157      N5164   1.438       .  S
C5158      C5159   1.402       .  A
C5158      H5163   1.084       .  S
C5159      C5160   1.415       .  A
C5160      N5161   1.440       .  S
N5161      H5165   1.046       .  S
N5161      H5166   1.043       .  S
N5164      H5167   1.041       .  S
N5164      H5168   1.046       .  S
C5169      C5170   1.402       .  A
C5169      C5174   1.407       .  A
C5169      H5176   1.084       .  S
C5170      C5171   1.413       .  A
C5171      C5172   1.394       .  A
C5171      N5178   1.438       .  S
C5172      C5173   1.404       .  A
C5172      H5177   1.083       .  S
C5173      C5174   1.413       .  A
C5174      N5175   1.437       .  S
N5175      H5179   1.046       .  S
N5175      H5180   1.046       .  S
N5178      H5181   1.042       .  S
N5178      H5182   1.045       .  S
C5183      C5184   1.401       .  A
C5183      C5188   1.400       .  A
C5183      H5190   1.084       .  S
C5184      C5185   1.415       .  A
C5185      C5186   1.405       .  A
C5185      N5192   1.438       .  S
C5186      C5187   1.409       .  A
C5186      H5191   1.084       .  S
C5187      C5188   1.420       .  A
C5188      N5189   1.433       .  S
N5189      H5193   1.042       .  S
N5189      H5194   1.045       .  S
N5192      H5195   1.043       .  S
N5192      H5196   1.046       .  S
C5197      C5198   1.403       .  A
C5197      C5202   1.407       .  A
C5197      H5204   1.083       .  S
C5198      C5199   1.417       .  A
C5199      C5200   1.407       .  A
C5199      N5206   1.437       .  S
C5200      C5201   1.403       .  A
C5200      H5205   1.083       .  S
C5201      C5202   1.416       .  A
C5202      N5203   1.437       .  S
N5203      H5207   1.046       .  S
N5203      H5208   1.046       .  S
N5206      H5209   1.046       .  S
N5206      H5210   1.046       .  S
C5211      C5212   1.403   1_565  A
C5211      C5216   1.398   1_556  A
C5211      H5218   1.083       .  S
C5212      C5213   1.412       .  A
C5213      C5214   1.403   1_556  A
C5213      N5220   1.438       .  S
C5214      C5215   1.402   1_545  A
C5214      H5219   1.084       .  S
C5215      C5216   1.415       .  A
C5216      N5217   1.437       .  S
N5217      H5221   1.045       .  S
N5217      H5222   1.043       .  S
N5220      H5223   1.046       .  S
N5220      H5224   1.046       .  S
C5225      C5226   1.405       .  A
C5225      C5230   1.400       .  A
C5225      H5232   1.084       .  S
C5226      C5227   1.416       .  A
C5227      C5228   1.408       .  A
C5227      N5234   1.438       .  S
C5228      C5229   1.402       .  A
C5228      H5233   1.084       .  S
C5229      C5230   1.415       .  A
C5230      N5231   1.439       .  S
N5231      H5235   1.046       .  S
N5231      H5236   1.043       .  S
N5234      H5237   1.046       .  S
N5234      H5238   1.046       .  S
C5239      C5240   1.403       .  A
C5239      C5244   1.395       .  A
C5239      H5246   1.084       .  S
C5240      C5241   1.419       .  A
C5241      C5242   1.401       .  A
C5241      N5248   1.440       .  S
C5242      C5243   1.403       .  A
C5242      H5247   1.084       .  S
C5243      C5244   1.414       .  A
C5244      N5245   1.432       .  S
N5245      H5249   1.043       .  S
N5245      H5250   1.045       .  S
N5248      H5251   1.041       .  S
N5248      H5252   1.046       .  S
C5253      C5254   1.400       .  A
C5253      C5258   1.399       .  A
C5253      H5260   1.084       .  S
C5254      C5255   1.416       .  A
C5255      C5256   1.402       .  A
C5255      N5262   1.438       .  S
C5256      C5257   1.404       .  A
C5256      H5261   1.084       .  S
C5257      C5258   1.418       .  A
C5258      N5259   1.433       .  S
N5259      H5263   1.043       .  S
N5259      H5264   1.046       .  S
N5262      H5265   1.043       .  S
N5262      H5266   1.046       .  S
C5267      C5268   1.402       .  A
C5267      C5272   1.400       .  A
C5267      H5274   1.084       .  S
C5268      C5269   1.417       .  A
C5269      C5270   1.399       .  A
C5269      N5276   1.432       .  S
C5270      C5271   1.402       .  A
C5270      H5275   1.084       .  S
C5271      C5272   1.418       .  A
C5272      N5273   1.432       .  S
N5273      H5277   1.042       .  S
N5273      H5278   1.045       .  S
N5276      H5279   1.045       .  S
N5276      H5280   1.042       .  S
