geometry optimzed in LAMMPS
_audit_creation_date              2020-11-30 
_audit_creation_method            'lammps2cif' 
_symmetry_space_group_name_H-M    'P1' 
_symmetry_Int_Tables_number       1 
_symmetry_cell_setting            triclinic 
loop_ 
_symmetry_equiv_pos_as_xyz 
  x,y,z 
_cell_length_a                    35.19643977358855 
_cell_length_b                    35.59727327568431 
_cell_length_c                    40.017604047936175 
_cell_angle_alpha                 90.21393096144295 
_cell_angle_beta                  89.9786830792034 
_cell_angle_gamma                 119.87703789101977 
loop_ 
_atom_site_label 
_atom_site_type_symbol 
_atom_site_fract_x 
_atom_site_fract_y 
_atom_site_fract_z 
_atom_site_charge 
Zr1        Zr  0.80041251  0.20473906  0.70250212     2.17510
O2          O  0.77042069  0.25331470  0.69844895    -0.50410
O3          O  0.79706654  0.19893044  0.76329466    -0.73620
O4          O  0.72125559  0.16636126  0.71024183    -0.80400
O5          O  0.91736641  0.30050802  0.69751013    -0.82140
O6          O  0.69384985  0.09678850  0.69245062    -0.77770
O7          O  0.84833058  0.28112419  0.71468687    -0.89410
O8          O  0.81702502  0.14944350  0.77768799    -0.75370
O9          O  0.78490619  0.13348825  0.71618559    -0.84860
O10         O  0.86878285  0.21064465  0.71710957    -0.84550
O11         O  0.76755853  0.16218387  0.65301014    -0.71310
O12         O  0.84585562  0.23372668  0.65386951    -0.83440
Zr13       Zr  0.86722660  0.12475301  0.63353529     2.26420
Zr14       Zr  0.75359992  0.09090431  0.66698238     2.06270
Zr15       Zr  0.91413292  0.23857669  0.66868685     2.10050
Zr16       Zr  0.85333861  0.13943876  0.73010147     1.78760
O17         O  0.94668749  0.29991233  0.63065882    -0.92240
O18         O  0.81648933  0.06923509  0.75764165    -0.40050
O19         O  0.90050013  0.16760279  0.68252050    -0.76690
O20         O  0.82153585  0.09495486  0.68179536    -0.95370
O21         O  0.79897880  0.11854734  0.61877008    -0.88680
O22         O  0.88232710  0.19579852  0.61965992    -0.91520
C23         C  0.80196658  0.17468047  0.78454893     1.02230
C24         C  0.88934989  0.30861858  0.71146811     1.15170
C25         C  0.68965696  0.12752887  0.70560463     1.05950
O26         O  0.71891212  0.02992822  0.70524414    -0.93670
O27         O  0.75139609  0.02919489  0.63846867    -0.89420
O28         O  0.82086838  0.04818301  0.62267829    -0.82560
C29         C  0.77980296  0.02089568  0.62542324     1.12580
O30         O  0.77743332  0.23146059  0.59667341    -0.95650
Zr31       Zr  0.81408287  0.18937583  0.60501212     1.88940
O32         O  0.85993190  0.11912555  0.57329295    -0.72290
O33         O  0.69215002  0.06090384  0.62804917    -0.51560
O34         O  0.74593731  0.14589166  0.57439298    -0.96240
O35         O  0.85748975  0.25426144  0.57174278    -0.53450
O36         O  0.83431402  0.16299739  0.55546914    -0.72810
C37         C  0.84853415  0.13648930  0.55027021     0.99530
O38         O  0.90681608  0.08565983  0.64288424    -0.61630
O39         O  0.97784233  0.26674540  0.70531855    -0.56430
O40         O  0.94307601  0.16653378  0.61616649    -0.93120
O41         O  0.97299898  0.23297676  0.64103493    -0.91540
O42         O  0.91317374  0.18482781  0.76797417    -0.91900
O43         O  0.90048210  0.10867908  0.74017903    -0.90680
C44         C  0.97523797  0.20448787  0.62253071     1.18370
H45         H  0.88169583  0.22954921  0.73617143     0.34320
H46         H  0.81690069  0.06635923  0.68642713     0.45170
H47         H  0.90209751  0.20732866  0.60092307     0.38700
H48         H  0.74044243  0.16157856  0.64790258     0.35180
H49         H  0.82616015  0.07553692  0.78124362     0.26960
H50         H  0.66742154  0.03782992  0.64073783     0.32900
H51         H  0.75336713  0.15436211  0.55071615     0.38810
H52         H  0.90375811  0.17056004  0.79000455     0.33270
H53         H  0.99622548  0.29747986  0.69879590     0.32150
H54         H  0.97733991  0.31769061  0.63845233     0.33830
H55         H  0.84728165  0.24539226  0.54847766     0.32800
H56         H  0.89677588  0.09082863  0.72010122     0.36790
H57         H  0.93203097  0.10512373  0.65720082     0.29530
H58         H  0.75375557  0.24920240  0.71936115     0.33760
H59         H  0.77159332  0.23026097  0.57237645     0.36610
H60         H  0.96663308  0.26787320  0.72777562     0.29220
H61         H  0.88779827  0.06140759  0.65786275     0.42090
H62         H  0.71476627  0.04234142  0.72618851     0.32150
H63         H  0.78524616  0.06126952  0.75822032     0.39770
H64         H  0.88760298  0.25878818  0.57198848     0.31620
H65         H  0.68437843  0.08389078  0.62529634     0.31680
H66         H  0.74797289  0.24096243  0.68058321     0.31940
C67         C  0.74827557  0.18851145  0.92131992     0.04050
C68         C  0.78253645  0.22026910  0.94059251    -0.12100
C69         C  0.82259288  0.24897227  0.92569691     0.01550
C70         C  0.82832282  0.24582007  0.89127684    -0.10630
C71         C  0.79464431  0.21379910  0.87188703     0.04040
C72         C  0.75468440  0.18479632  0.88705388    -0.10050
H73         H  0.77745027  0.22372604  0.96689444     0.09640
H74         H  0.85903679  0.26856740  0.87952227     0.07170
H75         H  0.72793944  0.16097483  0.87190000     0.07010
C76         C  0.84602830  0.07939422  0.41297493     0.04050
C77         C  0.83447181  0.09358492  0.44204916    -0.12100
C78         C  0.86290112  0.13490114  0.45542642     0.01550
C79         C  0.90194267  0.16274626  0.43867684    -0.10630
C80         C  0.91435853  0.14838954  0.41011136     0.04040
C81         C  0.88665360  0.10639268  0.39788728    -0.10050
H82         H  0.80432210  0.07196594  0.45497270     0.09640
H83         H  0.92412837  0.19427870  0.44932974     0.07170
H84         H  0.89650764  0.09486663  0.37627051     0.07010
Zr85       Zr  0.92797023  0.47082084  0.96583490     2.17510
O86         O  0.84880629  0.43054163  0.97374519    -0.50410
O87         O  0.92939450  0.47778462  0.90588209    -0.73620
O88         O  0.89807568  0.51779304  0.95502304    -0.80400
O89         O  0.93206130  0.36600958  0.97052734    -0.82140
O90         O  0.95013818  0.58648186  0.96895341    -0.77770
O91         O  0.89487810  0.39685291  0.94756602    -0.89410
O92         O  0.99909121  0.50252010  0.88776060    -0.75370
O93         O  0.98979604  0.53806411  0.95150445    -0.84860
O94         O  0.98453272  0.45551649  0.95152997    -0.84550
O95         O  0.94195645  0.51475400  0.01460732    -0.71310
O96         O  0.93730247  0.43656704  0.01411426    -0.83440
Zr97       Zr  0.07481083  0.53541847  0.03548907     2.26420
Zr98       Zr  0.00608274  0.58148072  0.00054694     2.06270
Zr99       Zr  0.99567438  0.42334021  0.00009080     2.10050
Zr100      Zr  0.04617675  0.52277596  0.93760735     1.78760
O101        O  0.95954823  0.36036919  0.03632901    -0.92240
O102        O  0.07296570  0.58907233  0.90530871    -0.40050
O103        O  0.05927115  0.49104752  0.98620516    -0.76690
O104        O  0.06470156  0.56843450  0.98637899    -0.95370
O105        O  0.01725336  0.54947166  0.04886910    -0.88680
O106        O  0.01181056  0.46770999  0.04881348    -0.91520
C107        C  0.95804469  0.48858553  0.88274122     1.02230
C108        C  0.90131898  0.36496470  0.95237564     1.15170
C109        C  0.91299679  0.55881459  0.95654590     1.05950
O110        O  0.04720765  0.64577022  0.96634402    -0.93670
O111        O  0.06284498  0.63570963  0.03539090    -0.89420
O112        O  0.10995689  0.61240969  0.05074295    -0.82560
C113        C  0.09768700  0.64097055  0.04969711     1.12580
O114        O  0.87522831  0.43849689  0.06790472    -0.95650
Zr115      Zr  0.95463113  0.48231928  0.06227633     1.88940
O116        O  0.07125822  0.53514985  0.09627878    -0.72290
O117        O  0.97464709  0.61513804  0.03570674    -0.51560
O118        O  0.92698788  0.52526982  0.08948883    -0.96240
O119        O  0.93363129  0.42199282  0.10068116    -0.53450
O120        O  0.00085596  0.51410273  0.11066297    -0.72810
C121        C  0.04135954  0.52891690  0.11758700     0.99530
O122        O  0.15393274  0.57117309  0.02739277    -0.61630
O123        O  0.02709397  0.39122805  0.96338917    -0.56430
O124        O  0.10365462  0.48738959  0.04901032    -0.93120
O125        O  0.05345371  0.41969218  0.03095679    -0.91540
O126        O  0.06640972  0.47666914  0.90619922    -0.91900
O127        O  0.12477944  0.55836012  0.92768765    -0.90680
C128        C  0.08932299  0.44648103  0.04579797     1.18370
H129        H  0.97682694  0.43637887  0.93245631     0.34320
H130        H  0.09101261  0.59564348  0.98202733     0.45170
H131        H  0.01772792  0.45456116  0.06766541     0.38700
H132        H  0.91754801  0.51927335  0.01904588     0.35180
H133        H  0.07956962  0.58172757  0.88296235     0.26960
H134        H  0.97946590  0.64109999  0.02320338     0.32900
H135        H  0.92454968  0.51738198  0.11341070     0.38810
H136        H  0.06965825  0.48696130  0.88285814     0.33270
H137        H  0.01253641  0.36036665  0.96998276     0.32150
H138        H  0.96839044  0.33986541  0.02743831     0.33830
H139        H  0.92603461  0.43138448  0.12174505     0.32800
H140        H  0.13792290  0.56334998  0.95027536     0.36790
H141        H  0.15853315  0.55177796  0.01220375     0.29530
H142        H  0.83632151  0.43439840  0.95272597     0.33760
H143        H  0.86867446  0.44116001  0.09157271     0.36610
H144        H  0.01502226  0.39092778  0.94098611     0.29220
H145        H  0.16118517  0.59683516  0.01349086     0.42090
H146        H  0.03315224  0.63757117  0.94405663     0.32150
H147        H  0.04685143  0.59217998  0.90163194     0.39770
H148        H  0.96096787  0.42178669  0.10602693     0.31620
H149        H  0.94256005  0.59533717  0.03493551     0.31680
H150        H  0.84281672  0.44723424  0.99072045     0.31940
C151        C  0.89438472  0.41199041  0.74593778     0.04050
C152        C  0.87588714  0.43662703  0.73472635    -0.12100
C153        C  0.88821707  0.47708420  0.74899823     0.01550
C154        C  0.91717245  0.49163084  0.77639983    -0.10630
C155        C  0.93433585  0.46623292  0.78898981     0.04040
C156        C  0.92416533  0.42727741  0.77281438    -0.10050
H157        H  0.85260139  0.42473318  0.71422928     0.09640
H158        H  0.92526336  0.52198070  0.78855521     0.07170
H159        H  0.93680990  0.40737257  0.78274766     0.07010
C160        C  0.10852614  0.58779479  0.25208852     0.04050
C161        C  0.10150032  0.58005706  0.21771495    -0.12100
C162        C  0.09044014  0.53953955  0.20422719     0.01550
C163        C  0.08782247  0.50703998  0.22515442    -0.10630
C164        C  0.09503339  0.51426448  0.25974664     0.04040
C165        C  0.10419951  0.55441793  0.27331433    -0.10050
H166        H  0.10503200  0.60580892  0.20133604     0.09640
H167        H  0.08016271  0.47599735  0.21448664     0.07170
H168        H  0.11099528  0.56063994  0.29978712     0.07010
Zr169      Zr  0.46701222  0.93091679  0.03528222     2.17510
O170        O  0.42950594  0.85188523  0.03666441    -0.50410
O171        O  0.46380473  0.93543778  0.09633353    -0.73620
O172        O  0.51579526  0.90280123  0.04739266    -0.80400
O173        O  0.35985251  0.93135720  0.02218127    -0.82140
O174        O  0.58485017  0.95145471  0.03086891    -0.77770
O175        O  0.38832676  0.88879569  0.03730759    -0.89410
O176        O  0.49237348  0.00649287  0.11012911    -0.75370
O177        O  0.53617918  0.99188844  0.04796727    -0.84860
O178        O  0.45263749  0.98798332  0.04836211    -0.84550
O179        O  0.50945151  0.94250860  0.98539524    -0.71310
O180        O  0.43352365  0.94080166  0.98626202    -0.83440
Zr181      Zr  0.53375162  0.07411599  0.96335859     2.26420
Zr182      Zr  0.57856844  0.00506052  0.99824385     2.06270
Zr183      Zr  0.42020128  0.99881316  0.99972998     2.10050
Zr184      Zr  0.52227436  0.04927623  0.06039759     1.78760
O185        O  0.35984263  0.97149902  0.95994517    -0.92240
O186        O  0.58530592  0.06818628  0.09625109    -0.40050
O187        O  0.48965811  0.06128405  0.01227504    -0.76690
O188        O  0.56776717  0.06460581  0.01196182    -0.95370
O189        O  0.54663658  0.01654618  0.94961649    -0.88680
O190        O  0.46391195  0.01322391  0.95070469    -0.91520
C191        C  0.47362065  0.96626925  0.11751503     1.02230
C192        C  0.35632574  0.89572462  0.03304378     1.15170
C193        C  0.55692412  0.91613091  0.04489873     1.05950
O194        O  0.64480587  0.04621787  0.03140592    -0.93670
O195        O  0.63377968  0.05906864  0.96243306    -0.89420
O196        O  0.60996105  0.10512105  0.94617337    -0.82560
C197        C  0.63872484  0.09293902  0.94748881     1.12580
O198        O  0.44220448  0.87780263  0.92864786    -0.95650
Zr199      Zr  0.47749333  0.95598440  0.93697330     1.88940
O200        O  0.52602186  0.07149152  0.90310337    -0.72290
O201        O  0.60935496  0.97058968  0.96327926    -0.51560
O202        O  0.52649676  0.93906921  0.90562794    -0.96240
O203        O  0.40906916  0.92585376  0.90557902    -0.53450
O204        O  0.49556064  0.00096505  0.88700309    -0.72810
C205        C  0.51195306  0.04157184  0.88080709     0.99530
O206        O  0.57474212  0.15264119  0.97089107    -0.61630
O207        O  0.38446822  0.02251710  0.04004644    -0.56430
O208        O  0.48820443  0.10611770  0.95420265    -0.93120
O209        O  0.42089075  0.06280687  0.97690937    -0.91540
O210        O  0.48173453  0.07991000  0.08735777    -0.91900
O211        O  0.56662412  0.12712342  0.06937587    -0.90680
C212        C  0.44897189  0.09701036  0.96129316     1.18370
H213        H  0.43234690  0.98053911  0.06670799     0.34320
H214        H  0.59573613  0.09032161  0.01592992     0.45170
H215        H  0.45001451  0.01930464  0.93234825     0.38700
H216        H  0.51310210  0.91776482  0.98113116     0.35180
H217        H  0.57821981  0.07730990  0.11766764     0.26960
H218        H  0.63633138  0.97584691  0.97503738     0.32900
H219        H  0.51757233  0.93763707  0.88198302     0.38810
H220        H  0.49078227  0.08340120  0.11111559     0.33270
H221        H  0.35555432  0.01391266  0.02999176     0.32150
H222        H  0.33816180  0.97790434  0.97035538     0.33830
H223        H  0.41749008  0.92545444  0.88202170     0.32800
H224        H  0.56532077  0.14002836  0.04784214     0.36790
H225        H  0.55699941  0.15921863  0.98652358     0.29530
H226        H  0.43649536  0.84420976  0.05869009     0.33760
H227        H  0.44409984  0.87347395  0.90437678     0.36610
H228        H  0.37765159  0.00307859  0.05948281     0.29220
H229        H  0.60085072  0.15851490  0.98421510     0.42090
H230        H  0.63530595  0.03770858  0.05478733     0.32150
H231        H  0.58372048  0.04025810  0.10141152     0.39770
H232        H  0.40058148  0.94849653  0.90628477     0.31620
H233        H  0.58907199  0.93903589  0.96534710     0.31680
H234        H  0.44473687  0.84331224  0.02010281     0.31940
C235        C  0.57104941  0.07042199  0.73659391     0.04050
C236        C  0.56042455  0.05233372  0.76855757    -0.12100
C237        C  0.52409525  0.04893408  0.78553248     0.01550
C238        C  0.49693054  0.06200864  0.76969262    -0.10630
C239        C  0.50564060  0.07766475  0.73664121     0.04040
C240        C  0.54318453  0.08229996  0.72039832    -0.10050
H241        H  0.58169424  0.04275761  0.78090253     0.09640
H242        H  0.46826316  0.05844633  0.78261481     0.07170
H243        H  0.55085573  0.09532508  0.69530607     0.07010
C244        C  0.42450106  0.92275555  0.25796762     0.04050
C245        C  0.42625136  0.92391837  0.22279777    -0.12100
C246        C  0.45937457  0.92063719  0.20573488     0.01550
C247        C  0.49026285  0.91546489  0.22397403    -0.10630
C248        C  0.48955944  0.91533099  0.25908088     0.04040
C249        C  0.45735598  0.92023731  0.27598768    -0.10050
H250        H  0.40136493  0.92651684  0.20872030     0.09640
H251        H  0.51566251  0.91266391  0.21078712     0.07170
H252        H  0.45601440  0.91890699  0.30304736     0.07010
Zr253      Zr  0.12628847  0.86971770  0.36517118     2.17510
O254        O  0.08537299  0.90765916  0.35693941    -0.50410
O255        O  0.12858780  0.87374973  0.42572169    -0.73620
O256        O  0.04931187  0.82432440  0.38025292    -0.80400
O257        O  0.23774156  0.97214971  0.35376723    -0.82140
O258        O  0.03086325  0.75445852  0.36949559    -0.77770
O259        O  0.16703308  0.94814198  0.36940629    -0.89410
O260        O  0.16380517  0.83888364  0.44421683    -0.75370
O261        O  0.11880730  0.80260858  0.38273504    -0.84860
O262        O  0.19805853  0.88388633  0.37960336    -0.84550
O263        O  0.09363412  0.82146022  0.31856645    -0.71310
O264        O  0.16970166  0.89757922  0.31555996    -0.83440
Zr265      Zr  0.20070171  0.79405052  0.30046027     2.26420
Zr266      Zr  0.08819800  0.75461227  0.33619138     2.06270
Zr267      Zr  0.24131674  0.91017859  0.33002300     2.10050
Zr268      Zr  0.19020841  0.81652376  0.39647152     1.78760
O269        O  0.27320755  0.97040563  0.29096153    -0.92240
O270        O  0.15132109  0.75208378  0.43097586    -0.40050
O271        O  0.23411665  0.84245126  0.34700609    -0.76690
O272        O  0.15928107  0.76660056  0.35083169    -0.95370
O273        O  0.12959426  0.78055015  0.28606646    -0.88680
O274        O  0.20927121  0.86194032  0.28359006    -0.91520
C275        C  0.14277126  0.85927132  0.44901695     1.02230
C276        C  0.20693602  0.97815238  0.36529779     1.15170
C277        C  0.02275797  0.78324129  0.38123299     1.05950
O278        O  0.04925558  0.69000686  0.37038541    -0.93670
O279        O  0.09188176  0.69176775  0.31672355    -0.89420
O280        O  0.15827740  0.71609594  0.29205276    -0.82560
C281        C  0.11998028  0.68579784  0.30065089     1.12580
O282        O  0.09729486  0.88629606  0.26061870    -0.95650
Zr283      Zr  0.13817030  0.84841728  0.26942677     1.88940
O284        O  0.19316294  0.78496562  0.24042275    -0.72290
O285        O  0.02891623  0.72618968  0.29536005    -0.51560
O286        O  0.07058637  0.80092288  0.23945806    -0.96240
O287        O  0.17677280  0.91138116  0.23324404    -0.53450
O288        O  0.16134622  0.82286588  0.22133216    -0.72810
C289        C  0.17937966  0.79951245  0.21693007     0.99530
O290        O  0.24548068  0.76066348  0.31118412    -0.61630
O291        O  0.30356706  0.94182268  0.36821136    -0.56430
O292        O  0.27461258  0.83894349  0.28069131    -0.93120
O293        O  0.30160525  0.90759683  0.30092406    -0.91540
O294        O  0.25674160  0.86459587  0.42730238    -0.91900
O295        O  0.23383968  0.78247372  0.40881018    -0.90680
C296        C  0.30503736  0.87844303  0.28409582     1.18370
H297        H  0.21044055  0.90493724  0.39746378     0.34320
H298        H  0.15775550  0.73970810  0.35710654     0.45170
H299        H  0.22788304  0.87306596  0.26419434     0.38700
H300        H  0.06488684  0.81746736  0.31405285     0.35180
H301        H  0.16506520  0.76106969  0.45333184     0.26960
H302        H  0.01094906  0.69506165  0.30089020     0.32900
H303        H  0.07745742  0.80904669  0.21566920     0.38810
H304        H  0.24981575  0.85519024  0.45085404     0.33270
H305        H  0.32415028  0.97031504  0.35834396     0.32150
H306        H  0.30263425  0.99045406  0.30019518     0.33830
H307        H  0.16641481  0.90032555  0.21036616     0.32800
H308        H  0.23545261  0.76946010  0.38733273     0.36790
H309        H  0.27043726  0.78226597  0.32472135     0.29530
H310        H  0.07103326  0.90591587  0.37862923     0.33760
H311        H  0.09078982  0.88396902  0.23638436     0.36610
H312        H  0.29257487  0.94893683  0.38867160     0.29220
H313        H  0.22822263  0.73688216  0.32705407     0.42090
H314        H  0.06734317  0.69656457  0.39082543     0.32150
H315        H  0.12170058  0.74834894  0.43390808     0.39770
H316        H  0.20776161  0.91845993  0.23349519     0.31620
H317        H  0.01040823  0.73875605  0.30179218     0.31680
H318        H  0.06112873  0.88906294  0.34153928     0.31940
C319        C  0.24369865  0.82845731  0.07280161     0.04050
C320        C  0.22392020  0.78552190  0.06073229    -0.12100
C321        C  0.19044095  0.75150735  0.07893571     0.01550
C322        C  0.17832852  0.76039301  0.11017273    -0.10630
C323        C  0.19805988  0.80297905  0.12249250     0.04040
C324        C  0.22951423  0.83695281  0.10316498    -0.10050
H325        H  0.23373685  0.77867476  0.03685290     0.09640
H326        H  0.15346039  0.73417729  0.12489907     0.07170
H327        H  0.24503629  0.86980993  0.11282503     0.07010
C328        C  0.16607285  0.90859268  0.59394533     0.04050
C329        C  0.17390607  0.89634428  0.56252588    -0.12100
C330        C  0.13966828  0.86321731  0.54427775     0.01550
C331        C  0.09760784  0.84046641  0.55811110    -0.10630
C332        C  0.08951504  0.85130514  0.59007295     0.04040
C333        C  0.12359135  0.88579815  0.60765033    -0.10050
H334        H  0.20625835  0.91405423  0.55147458     0.09640
H335        H  0.07120163  0.81472762  0.54388984     0.07170
H336        H  0.11705784  0.89408130  0.63223326     0.07010
Zr337      Zr  0.79560536  0.59438344  0.69788565     2.17510
O338        O  0.75422475  0.51709198  0.68540063    -0.50410
O339        O  0.79031403  0.59159325  0.75775424    -0.73620
O340        O  0.83922155  0.56088425  0.71360930    -0.80400
O341        O  0.69875045  0.61373623  0.69601839    -0.82140
O342        O  0.90957563  0.60690845  0.69774328    -0.77770
O343        O  0.71812131  0.56346823  0.70984107    -0.89410
O344        O  0.83191192  0.65994511  0.77831493    -0.75370
O345        O  0.86645579  0.65003322  0.71444915    -0.84860
O346        O  0.78818227  0.65469984  0.71497137    -0.84550
O347        O  0.84070697  0.60808569  0.64952599    -0.71310
O348        O  0.76613199  0.61272034  0.65062166    -0.83440
Zr349      Zr  0.87737215  0.74511742  0.63611941     2.26420
Zr350      Zr  0.91144610  0.66566296  0.66613549     2.06270
Zr351      Zr  0.76047617  0.67431826  0.66779678     2.10050
Zr352      Zr  0.85889844  0.70987499  0.73143969     1.78760
O353        O  0.70030420  0.64675313  0.62783229    -0.92240
O354        O  0.92394636  0.72903509  0.76482114    -0.40050
O355        O  0.83178323  0.73086950  0.68438890    -0.76690
O356        O  0.90623215  0.72718989  0.68386246    -0.95370
O357        O  0.88384144  0.68474324  0.61884384    -0.88680
O358        O  0.80591314  0.68977610  0.61967983    -0.91520
C359        C  0.80656369  0.61892799  0.78172474     1.02230
C360        C  0.69057345  0.57717883  0.70849431     1.15170
C361        C  0.88016184  0.57241318  0.71199141     1.05950
O362        O  0.97684814  0.69920101  0.70105550    -0.93670
O363        O  0.97136035  0.72182941  0.63430390    -0.89420
O364        O  0.95393961  0.77358744  0.62119293    -0.82560
C365        C  0.98023612  0.75835412  0.62164092     1.12580
O366        O  0.77049255  0.55149470  0.59217640    -0.95650
Zr367      Zr  0.81286206  0.62924260  0.60297753     1.88940
O368        O  0.87706069  0.74756547  0.57550946    -0.72290
O369        O  0.93953953  0.63027433  0.62951470    -0.51560
O370        O  0.85687692  0.60722768  0.57017621    -0.96240
O371        O  0.74811479  0.60947083  0.56885540    -0.53450
O372        O  0.83962239  0.67828581  0.55602976    -0.72810
C373        C  0.86205017  0.71941036  0.55184469     0.99530
O374        O  0.92257037  0.82267737  0.64748569    -0.61630
O375        O  0.72841711  0.70520024  0.70513626    -0.56430
O376        O  0.83815568  0.78430813  0.63003522    -0.93120
O377        O  0.76666006  0.74072346  0.64461361    -0.91540
O378        O  0.81600114  0.73299913  0.76446094    -0.91900
O379        O  0.89950766  0.78693240  0.74466006    -0.90680
C380        C  0.79873046  0.77648134  0.63367502     1.18370
H381        H  0.76828047  0.64753347  0.73356553     0.34320
H382        H  0.93497197  0.75096005  0.68935378     0.45170
H383        H  0.79473687  0.69940044  0.60158276     0.38700
H384        H  0.84223553  0.58248582  0.64380162     0.35180
H385        H  0.91699395  0.73573183  0.78727885     0.26960
H386        H  0.96550369  0.63303904  0.64137568     0.32900
H387        H  0.84778548  0.60694319  0.54671917     0.38810
H388        H  0.82633968  0.73458404  0.78770975     0.33270
H389        H  0.69706042  0.69075855  0.69880446     0.32150
H390        H  0.68038020  0.65654349  0.63665575     0.33830
H391        H  0.75731952  0.60828149  0.54567120     0.32800
H392        H  0.90932971  0.80136140  0.72273159     0.36790
H393        H  0.90590550  0.82955728  0.66396360     0.29530
H394        H  0.75348311  0.50261436  0.70667216     0.33760
H395        H  0.77176430  0.54799993  0.56771356     0.36610
H396        H  0.72867133  0.69343838  0.72746398     0.29220
H397        H  0.94794839  0.82584913  0.66047896     0.42090
H398        H  0.96649553  0.68708255  0.72361321     0.32150
H399        H  0.92388732  0.70141260  0.76780374     0.39770
H400        H  0.74432350  0.63521142  0.56925988     0.31620
H401        H  0.91767067  0.59900717  0.63051318     0.31680
H402        H  0.77347562  0.51159195  0.67057426     0.31940
C403        C  0.74345074  0.55775197  0.91469984     0.04050
C404        C  0.77181283  0.54871904  0.93296740    -0.12100
C405        C  0.81515950  0.56504248  0.92252893     0.01550
C406        C  0.83031715  0.59128306  0.89397786    -0.10630
C407        C  0.80163071  0.59920520  0.87516578     0.04040
C408        C  0.75807729  0.58220967  0.88550490    -0.10050
H409        H  0.75991557  0.52843622  0.95498071     0.09640
H410        H  0.86330241  0.60281170  0.88490224     0.07170
H411        H  0.73570816  0.58825510  0.87093782     0.07010
C412        C  0.91386565  0.76926137  0.41282477     0.04050
C413        C  0.90498840  0.74862277  0.44401262    -0.12100
C414        C  0.86234687  0.72812765  0.45693906     0.01550
C415        C  0.82827773  0.72715140  0.43836782    -0.10630
C416        C  0.83715936  0.74957113  0.40815475     0.04040
C417        C  0.88011361  0.77085575  0.39547691    -0.10050
H418        H  0.93121000  0.74880629  0.45834687     0.09640
H419        H  0.79538805  0.71156579  0.44858304     0.07170
H420        H  0.88701214  0.78776155  0.37183213     0.07010
Zr421      Zr  0.12507764  0.25882581  0.36842484     2.17510
O422        O  0.07997937  0.18117211  0.35849402    -0.50410
O423        O  0.12756116  0.25878202  0.42893303    -0.73620
O424        O  0.16586066  0.22318127  0.38474416    -0.80400
O425        O  0.02957279  0.28055866  0.36250102    -0.82140
O426        O  0.23457476  0.26041815  0.36285149    -0.77770
O427        O  0.04781997  0.23072258  0.38005624    -0.89410
O428        O  0.16689291  0.32886434  0.44630084    -0.75370
O429        O  0.19673667  0.31407917  0.38353234    -0.84860
O430        O  0.11896615  0.32059282  0.38294302    -0.84550
O431        O  0.16944348  0.26810793  0.32016536    -0.71310
O432        O  0.09736533  0.27593088  0.31941676    -0.83440
Zr433      Zr  0.20904670  0.40421817  0.30123093     2.26420
Zr434      Zr  0.24126356  0.32478639  0.33547907     2.06270
Zr435      Zr  0.09266005  0.33895137  0.33413017     2.10050
Zr436      Zr  0.19046363  0.37563870  0.39769246     1.78760
O437        O  0.03086880  0.31064286  0.29562678    -0.92240
O438        O  0.25713507  0.39964429  0.43025479    -0.40050
O439        O  0.16451385  0.39541338  0.34922970    -0.76690
O440        O  0.23694240  0.38790061  0.35037816    -0.95370
O441        O  0.21535382  0.34288249  0.28635489    -0.88680
O442        O  0.13717018  0.34916528  0.28634622    -0.91520
C443        C  0.14482157  0.28794323  0.45171222     1.02230
C444        C  0.02061498  0.24461436  0.37649247     1.15170
C445        C  0.20449588  0.22905010  0.37982381     1.05950
O446        O  0.30343822  0.34833601  0.37313862    -0.93670
O447        O  0.30600339  0.38620103  0.31134027    -0.89420
O448        O  0.28584786  0.43233319  0.28884386    -0.82560
C449        C  0.31427589  0.42084284  0.29553584     1.12580
O450        O  0.10325466  0.20970997  0.26285837    -0.95650
Zr451      Zr  0.14344786  0.28793969  0.27164010     1.88940
O452        O  0.20717442  0.40439974  0.24068019    -0.72290
O453        O  0.26906205  0.29287266  0.29525697    -0.51560
O454        O  0.18940372  0.26778119  0.23946514    -0.96240
O455        O  0.07681279  0.26334781  0.23878065    -0.53450
O456        O  0.16543135  0.33485605  0.22266796    -0.72810
C457        C  0.18852177  0.37587091  0.21759901     0.99530
O458        O  0.25175889  0.48203524  0.31172961    -0.61630
O459        O  0.06495920  0.37503880  0.37033653    -0.56430
O460        O  0.16922158  0.43976487  0.28466486    -0.93120
O461        O  0.09989689  0.40324977  0.30567492    -0.91540
O462        O  0.14674894  0.39816635  0.43030261    -0.91900
O463        O  0.22934340  0.45343979  0.40804607    -0.90680
C464        C  0.13068583  0.43415815  0.28873536     1.18370
H465        H  0.09938877  0.31464378  0.40160878     0.34320
H466        H  0.26580017  0.41164554  0.35559014     0.45170
H467        H  0.12580270  0.35747823  0.26757148     0.38700
H468        H  0.16987502  0.24166082  0.31557690     0.35180
H469        H  0.24989180  0.40584311  0.45278222     0.26960
H470        H  0.29437131  0.29353447  0.30662741     0.32900
H471        H  0.18011845  0.26668667  0.21595834     0.38810
H472        H  0.15814520  0.40160526  0.45339887     0.33270
H473        H  0.03411135  0.36335670  0.36330631     0.32150
H474        H  0.01253801  0.32264582  0.30383963     0.33830
H475        H  0.08559127  0.26227523  0.21543923     0.32800
H476        H  0.24723178  0.46618178  0.38775288     0.36790
H477        H  0.23284116  0.48854908  0.32610854     0.29530
H478        H  0.07948168  0.16745599  0.38009582     0.33760
H479        H  0.10539412  0.20529398  0.23863694     0.36610
H480        H  0.06298743  0.36252196  0.39275149     0.29220
H481        H  0.27581097  0.48595563  0.32676763     0.42090
H482        H  0.29023824  0.33787330  0.39542825     0.32150
H483        H  0.25938251  0.37323276  0.43327249     0.39770
H484        H  0.07110553  0.28790832  0.23917841     0.31620
H485        H  0.24654802  0.26178425  0.29432210     0.31680
H486        H  0.09762768  0.17369094  0.34349076     0.31940
C487        C  0.24155388  0.41278141  0.07479910     0.04050
C488        C  0.21918604  0.43346784  0.06248759    -0.12100
C489        C  0.18230928  0.42950099  0.07924956     0.01550
C490        C  0.16930682  0.40659715  0.10955100    -0.10630
C491        C  0.19205758  0.38665832  0.12229874     0.04040
C492        C  0.22703113  0.38853591  0.10424767    -0.10050
H493        H  0.22988240  0.45188653  0.03952296     0.09640
H494        H  0.14214932  0.40500851  0.12350697     0.07170
H495        H  0.24477273  0.37344866  0.11429949     0.07010
C496        C  0.09621511  0.25764056  0.59849014     0.04050
C497        C  0.10048938  0.27318467  0.56571834    -0.12100
C498        C  0.13767220  0.28270086  0.54685064     0.01550
C499        C  0.17104555  0.27722222  0.56086468    -0.10630
C500        C  0.16708421  0.26168569  0.59351183     0.04040
C501        C  0.12969543  0.25217149  0.61241881    -0.10050
H502        H  0.07465992  0.27737071  0.55479080     0.09640
H503        H  0.19974371  0.28437807  0.54615760     0.07170
H504        H  0.12637005  0.23990099  0.63763371     0.07010
Zr505      Zr  0.59109142  0.78960587  0.29741919     2.17510
O506        O  0.51231100  0.74532583  0.30599421    -0.50410
O507        O  0.59357668  0.78625697  0.23742172    -0.73620
O508        O  0.55613501  0.82975220  0.27957389    -0.80400
O509        O  0.61237001  0.69511302  0.30343476    -0.82140
O510        O  0.59147843  0.89688049  0.30343302    -0.77770
O511        O  0.56457177  0.71481392  0.28256524    -0.89410
O512        O  0.66374431  0.83074698  0.22060419    -0.75370
O513        O  0.64609326  0.86148284  0.28402496    -0.84860
O514        O  0.65463804  0.78537688  0.28415603    -0.84550
O515        O  0.59802273  0.83223436  0.34591905    -0.71310
O516        O  0.60548446  0.75992219  0.34613195    -0.83440
Zr517      Zr  0.73506428  0.87224148  0.36877529     2.26420
Zr518      Zr  0.65542301  0.90407048  0.33298209     2.06270
Zr519      Zr  0.67060434  0.75761950  0.33294711     2.10050
Zr520      Zr  0.70938542  0.85691292  0.27087448     1.78760
O521        O  0.64346856  0.69838781  0.37285428    -0.92240
O522        O  0.73025237  0.92209989  0.23845812    -0.40050
O523        O  0.72711216  0.82977730  0.31973324    -0.76690
O524        O  0.72022700  0.90117471  0.31947282    -0.95370
O525        O  0.67141640  0.87634012  0.38191582    -0.88680
O526        O  0.67950464  0.80013670  0.38149218    -0.91520
C527        C  0.62294165  0.80419960  0.21488023     1.02230
C528        C  0.57804107  0.68771018  0.28680801     1.15170
C529        C  0.56109646  0.86738946  0.28519696     1.05950
O530        O  0.68434248  0.96626839  0.29579509    -0.93670
O531        O  0.71269324  0.96629207  0.36344357    -0.89420
O532        O  0.76088951  0.94711782  0.38399042    -0.82560
C533        C  0.74771112  0.97446674  0.37944800     1.12580
O534        O  0.53619554  0.76661000  0.40014704    -0.95650
Zr535      Zr  0.61569576  0.80443113  0.39410449     1.88940
O536        O  0.73125618  0.86650740  0.42973860    -0.72290
O537        O  0.61976442  0.93160219  0.36991840    -0.51560
O538        O  0.59596836  0.84934971  0.42773305    -0.96240
O539        O  0.58735865  0.73656198  0.42458254    -0.53450
O540        O  0.66002449  0.82119943  0.44380165    -0.72810
C541        C  0.70062702  0.84492287  0.45104241     0.99530
O542        O  0.81410651  0.91965528  0.36190398    -0.61630
O543        O  0.70579687  0.72795438  0.29764229    -0.56430
O544        O  0.77708760  0.83635868  0.37732327    -0.93120
O545        O  0.73772487  0.76691659  0.35822599    -0.91540
O546        O  0.73788184  0.81724966  0.23989901    -0.91900
O547        O  0.78831609  0.89936310  0.26265319    -0.90680
C548        C  0.77167850  0.79852081  0.37200128     1.18370
H549        H  0.64986081  0.76644424  0.26534544     0.34320
H550        H  0.74416984  0.93007167  0.31532019     0.45170
H551        H  0.68786790  0.78834891  0.39992825     0.38700
H552        H  0.57092698  0.83221191  0.34983582     0.35180
H553        H  0.73916154  0.91626402  0.21644546     0.26960
H554        H  0.61861185  0.95462948  0.35691783     0.32900
H555        H  0.59271906  0.83804701  0.45075262     0.38810
H556        H  0.74108575  0.82789754  0.21666892     0.33270
H557        H  0.69211857  0.69708581  0.30407579     0.32150
H558        H  0.65575847  0.68018372  0.36513203     0.33830
H559        H  0.58394878  0.74381434  0.44789962     0.32800
H560        H  0.80037049  0.91041772  0.28519166     0.36790
H561        H  0.82356543  0.90427452  0.34627821     0.29530
H562        H  0.49899217  0.74462597  0.28404187     0.33760
H563        H  0.53059472  0.76754991  0.42429957     0.36610
H564        H  0.69465552  0.72742165  0.27483117     0.29220
H565        H  0.81760294  0.94460009  0.34862766     0.42090
H566        H  0.67007978  0.95427279  0.27398441     0.32150
H567        H  0.70231776  0.92152663  0.23394156     0.39770
H568        H  0.61215672  0.73088356  0.42552536     0.31620
H569        H  0.58890460  0.90798628  0.37128973     0.31680
H570        H  0.50444387  0.76299171  0.32051686     0.31940
C571        C  0.56000811  0.74945282  0.08005968     0.04050
C572        C  0.54640621  0.77682814  0.06630694    -0.12100
C573        C  0.56316182  0.81905777  0.07848442     0.01550
C574        C  0.59226470  0.83329258  0.10573571    -0.10630
C575        C  0.60364452  0.80503725  0.12118327     0.04040
C576        C  0.58838026  0.76342005  0.10769654    -0.10050
H577        H  0.52349479  0.76556972  0.04555717     0.09640
H578        H  0.60340776  0.86510252  0.11647509     0.07170
H579        H  0.59719276  0.74142640  0.11944788     0.07010
C580        C  0.77615317  0.91989674  0.58957155     0.04050
C581        C  0.77304808  0.88365243  0.60573554    -0.12100
C582        C  0.75974446  0.84488793  0.58791383     0.01550
C583        C  0.74955662  0.84299405  0.55382487    -0.10630
C584        C  0.75423386  0.87985411  0.53724572     0.04040
C585        C  0.76751416  0.91812781  0.55528417    -0.10050
H586        H  0.78062552  0.88561123  0.63214585     0.09640
H587        H  0.74017855  0.81349096  0.53985791     0.07170
H588        H  0.77112844  0.94662847  0.54265016     0.07010
Zr589      Zr  0.25589176  0.12528443  0.63321837     2.17510
O590        O  0.17642594  0.08000094  0.62835069    -0.50410
O591        O  0.25877763  0.12089755  0.57265899    -0.73620
O592        O  0.21777680  0.16581162  0.62514912    -0.80400
O593        O  0.26814167  0.02559548  0.64533075    -0.82140
O594        O  0.26237820  0.23592752  0.64058600    -0.77770
O595        O  0.21851651  0.04743393  0.63502974    -0.89410
O596        O  0.32914387  0.16358438  0.55578191    -0.75370
O597        O  0.31315178  0.19568401  0.61886884    -0.84860
O598        O  0.31698380  0.11668756  0.61912160    -0.84550
O599        O  0.26572129  0.16857676  0.68202202    -0.71310
O600        O  0.27086313  0.09555930  0.68176111    -0.83440
Zr601      Zr  0.40182693  0.20272285  0.70381473     2.26420
Zr602      Zr  0.32540139  0.23887363  0.66804722     2.06270
Zr603      Zr  0.33355920  0.08881683  0.66793126     2.10050
Zr604      Zr  0.37452106  0.18735311  0.60595157     1.78760
O605        O  0.30945753  0.02689861  0.70491257    -0.92240
O606        O  0.39788026  0.25320061  0.57373375    -0.40050
O607        O  0.39227383  0.15972692  0.65466744    -0.76690
O608        O  0.38814605  0.23241630  0.65442095    -0.95370
O609        O  0.34027617  0.21039695  0.71711389    -0.88680
O610        O  0.34394575  0.13183360  0.71652266    -0.91520
C611        C  0.28819638  0.13817816  0.54996077     1.02230
C612        C  0.22970133  0.01842943  0.63714200     1.15170
C613        C  0.22661079  0.20518356  0.62831659     1.05950
O614        O  0.35758587  0.30033811  0.63009482    -0.93670
O615        O  0.38367593  0.29930839  0.69867495    -0.89420
O616        O  0.43215473  0.27912243  0.71689730    -0.82560
C617        C  0.41924977  0.30689468  0.71337950     1.12580
O618        O  0.20334527  0.10395862  0.73695706    -0.95650
Zr619      Zr  0.28263465  0.13975121  0.73003159     1.88940
O620        O  0.39824850  0.20233621  0.76456025    -0.72290
O621        O  0.29376050  0.27072576  0.70485787    -0.51560
O622        O  0.26570690  0.18651961  0.76393488    -0.96240
O623        O  0.25241004  0.07130545  0.75995781    -0.53450
O624        O  0.32772978  0.15563163  0.77945707    -0.72810
C625        C  0.36831793  0.18064586  0.78622660     0.99530
O626        O  0.48099592  0.24260871  0.69554823    -0.61630
O627        O  0.36591904  0.06177544  0.62738276    -0.56430
O628        O  0.43503583  0.16055942  0.72150603    -0.93120
O629        O  0.39800937  0.09414762  0.69655866    -0.91540
O630        O  0.39999867  0.14499602  0.57513032    -0.91900
O631        O  0.45323646  0.22765595  0.59618845    -0.90680
C632        C  0.42883430  0.12251826  0.71534517     1.18370
H633        H  0.31044554  0.09693141  0.60058289     0.34320
H634        H  0.41289223  0.26075188  0.64998836     0.45170
H635        H  0.35114639  0.11940967  0.73518916     0.38700
H636        H  0.23960580  0.17007727  0.68677930     0.35180
H637        H  0.40496228  0.24649837  0.55132361     0.26960
H638        H  0.29322536  0.29378691  0.69145443     0.32900
H639        H  0.26228082  0.17514881  0.78694620     0.38810
H640        H  0.40342294  0.15545826  0.55182819     0.33270
H641        H  0.36428216  0.03599941  0.63812445     0.32150
H642        H  0.31979621  0.00855767  0.69410097     0.33830
H643        H  0.25170871  0.07889095  0.78369563     0.32800
H644        H  0.46631510  0.23665338  0.61873401     0.36790
H645        H  0.48717218  0.22351507  0.68125425     0.29530
H646        H  0.16820757  0.08789795  0.60692468     0.33760
H647        H  0.19836832  0.10518409  0.76119336     0.36610
H648        H  0.34445449  0.04982867  0.60884302     0.29220
H649        H  0.48650013  0.26701710  0.68072331     0.42090
H650        H  0.33965270  0.28980854  0.60950567     0.32150
H651        H  0.37080635  0.25465792  0.57022014     0.39770
H652        H  0.27562147  0.06333969  0.75896873     0.31620
H653        H  0.26258796  0.24820350  0.70730134     0.31680
H654        H  0.16384407  0.09013242  0.64598547     0.31940
C655        C  0.44756503  0.25943558  0.92325359     0.04050
C656        C  0.45463881  0.22700884  0.93659282    -0.12100
C657        C  0.44697584  0.19116184  0.91696032     0.01550
C658        C  0.43283457  0.18810658  0.88387100    -0.10630
C659        C  0.42625880  0.22066827  0.87023677     0.04040
C660        C  0.43371792  0.25622428  0.88994156    -0.10050
H661        H  0.46719285  0.23023698  0.96180317     0.09640
H662        H  0.42858711  0.16123020  0.86836666     0.07170
H663        H  0.42978944  0.28193142  0.87905181     0.07010
C664        C  0.25851002  0.09090462  0.40657735     0.04050
C665        C  0.24863707  0.11871618  0.38817362    -0.12100
C666        C  0.25327698  0.15677632  0.40283773     0.01550
C667        C  0.26881364  0.16742989  0.43581874    -0.10630
C668        C  0.27882322  0.14016693  0.45434238     0.04040
C669        C  0.27375784  0.10205310  0.43960370    -0.10050
H670        H  0.23711296  0.11067415  0.36262815     0.09640
H671        H  0.27298074  0.19696754  0.44714976     0.07170
H672        H  0.28155155  0.08097423  0.45392832     0.07010
Zr673      Zr  0.53668862  0.46415890  0.96760552     2.17510
O674        O  0.57560932  0.42455130  0.97742710    -0.50410
O675        O  0.54054299  0.46497484  0.90712452    -0.73620
O676        O  0.49012899  0.38760676  0.95598491    -0.80400
O677        O  0.64146865  0.57182014  0.98084146    -0.82140
O678        O  0.41991262  0.36845826  0.96948768    -0.77770
O679        O  0.61487267  0.50477236  0.95767985    -0.89410
O680        O  0.50739274  0.50103965  0.88689830    -0.75370
O681        O  0.46789908  0.45558567  0.95100369    -0.84860
O682        O  0.55101189  0.53424133  0.95152631    -0.84550
O683        O  0.48999027  0.43512955  0.01552227    -0.71310
O684        O  0.56767974  0.50892467  0.01607813    -0.83440
Zr685      Zr  0.46579481  0.54408757  0.03095222     2.26420
Zr686      Zr  0.42159244  0.42914077  0.99915848     2.06270
Zr687      Zr  0.58009505  0.57879505  0.00009566     2.10050
Zr688      Zr  0.48241510  0.52556378  0.93485751     1.78760
O689        O  0.64122969  0.61269678  0.03913984    -0.92240
O690        O  0.41725364  0.48276698  0.90085624    -0.40050
O691        O  0.51202286  0.57240713  0.98280094    -0.76690
O692        O  0.43466536  0.49910990  0.98233459    -0.95370
O693        O  0.45148136  0.47406905  0.04731298    -0.88680
O694        O  0.53394204  0.55151850  0.04778453    -0.91520
C695        C  0.52803541  0.48000741  0.88309982     1.02230
C696        C  0.64606790  0.54279751  0.96531712     1.15170
C697        C  0.44891087  0.36036446  0.95741877     1.05950
O698        O  0.35608623  0.39513866  0.96441327    -0.93670
O699        O  0.36124227  0.43477743  0.02450250    -0.89420
O700        O  0.38767401  0.50502349  0.04022924    -0.82560
C701        C  0.35669756  0.46578539  0.03685022     1.12580
O702        O  0.55690555  0.43997248  0.07308895    -0.95650
Zr703      Zr  0.51991685  0.48146315  0.06327568     1.88940
O704        O  0.46004186  0.54043200  0.09157125    -0.72290
O705        O  0.39162792  0.37058642  0.03981819    -0.51560
O706        O  0.47205796  0.41636076  0.09484572    -0.96240
O707        O  0.58547200  0.52089790  0.09771311    -0.53450
O708        O  0.49583698  0.50641522  0.11082332    -0.72810
C709        C  0.47382677  0.52590003  0.11516328     0.99530
O710        O  0.43150928  0.58784665  0.01962635    -0.61630
O711        O  0.61426602  0.63708796  0.95941509    -0.56430
O712        O  0.51274793  0.61986889  0.04539654    -0.93120
O713        O  0.58148293  0.64086076  0.02662056    -0.91540
O714        O  0.52750651  0.59130969  0.90314075    -0.91900
O715        O  0.44354141  0.56446798  0.92242879    -0.90680
C716        C  0.55342558  0.64802998  0.04150769     1.18370
H717        H  0.57179966  0.54559739  0.93338663     0.34320
H718        H  0.40726658  0.49753011  0.97652552     0.45170
H719        H  0.54627276  0.57122743  0.06646463     0.38700
H720        H  0.48597964  0.40692747  0.02081509     0.35180
H721        H  0.42482858  0.49658697  0.87857347     0.26960
H722        H  0.36227466  0.34962230  0.03095286     0.32900
H723        H  0.48122396  0.42407109  0.11843507     0.38810
H724        H  0.51698869  0.58365738  0.87981235     0.33270
H725        H  0.64316634  0.65757909  0.96923948     0.32150
H726        H  0.66226758  0.64053376  0.02858878     0.33830
H727        H  0.57536579  0.51189418  0.12092593     0.32800
H728        H  0.44308376  0.57813141  0.94390057     0.36790
H729        H  0.45291171  0.61225782  0.00578530     0.29530
H730        H  0.57289957  0.40873476  0.95634516     0.33760
H731        H  0.55577036  0.43532472  0.09753308     0.36610
H732        H  0.62122756  0.62423564  0.94003124     0.29220
H733        H  0.40722657  0.57037357  0.00391361     0.42090
H734        H  0.36720721  0.40077202  0.94119651     0.32150
H735        H  0.41615982  0.45467566  0.89749232     0.39770
H736        H  0.59291060  0.55159564  0.09680187     0.31620
H737        H  0.40899149  0.35583334  0.03715145     0.31680
H738        H  0.55753236  0.40178867  0.99379897     0.31940
C739        C  0.51808899  0.41189869  0.74578825     0.04050
C740        C  0.55976214  0.43860608  0.73215937    -0.12100
C741        C  0.58727603  0.48015596  0.74521682     0.01550
C742        C  0.57398527  0.49390177  0.77367143    -0.10630
C743        C  0.53308687  0.46662927  0.78840742     0.04040
C744        C  0.50475140  0.42624660  0.77384804    -0.10050
H745        H  0.57045515  0.42736532  0.71085469     0.09640
H746        H  0.59600902  0.52497702  0.78506646     0.07170
H747        H  0.47348499  0.40502683  0.78554543     0.07010
C748        C  0.41702764  0.51221762  0.25468937     0.04050
C749        C  0.44864694  0.54514769  0.27504054    -0.12100
C750        C  0.49141329  0.57196523  0.26313722     0.01550
C751        C  0.50271639  0.56356176  0.23130983    -0.10630
C752        C  0.47086780  0.53183213  0.21052805     0.04040
C753        C  0.42791325  0.50638977  0.22218234    -0.10050
H754        H  0.43947249  0.55085786  0.29959973     0.09640
H755        H  0.53585831  0.58252059  0.22200698     0.07080
H756        H  0.40316612  0.48172515  0.20614628     0.07010
C757        C  0.46259744  0.53130810  0.14965907    -0.15510
C758        C  0.48274304  0.52621980  0.17632333    -0.30690
H759        H  0.43747977  0.54020610  0.15334678     0.13510
H760        H  0.51019979  0.52065341  0.17306161     0.14090
C761        C  0.53936628  0.47259646  0.84908124    -0.15510
C762        C  0.52174021  0.47798875  0.82101820    -0.30690
H763        H  0.56234396  0.46065598  0.84700784     0.13510
H764        H  0.49678151  0.48740326  0.82212827     0.14090
C765        C  0.43364627  0.31709811  0.94301949    -0.15510
C766        C  0.45917076  0.29892376  0.94282692    -0.30690
H767        H  0.40135726  0.30031875  0.93154566     0.13510
H768        H  0.48983872  0.31390954  0.95668526     0.14090
C769        C  0.38102037  0.18319487  0.82144852    -0.15510
C770        C  0.41413841  0.21913471  0.83480838    -0.30690
H771        H  0.36148867  0.15529171  0.83723299     0.13510
H772        H  0.43106323  0.24850822  0.82003022     0.14090
C773        C  0.44677599  0.35068496  0.72751377    -0.15510
C774        C  0.49020292  0.36797225  0.73169956    -0.30690
H775        H  0.43134881  0.36981677  0.73338908     0.13510
H776        H  0.50617242  0.35034935  0.72293885     0.14090
C777        C  0.29521169  0.15223831  0.48901258    -0.15510
C778        C  0.27339358  0.12666181  0.51493118    -0.30690
H779        H  0.32377807  0.18385832  0.49344790     0.13510
H780        H  0.24270061  0.09688729  0.51033846     0.14090
C781        C  0.54281225  0.70566316  0.06604610    -0.15510
C782        C  0.56983325  0.69154954  0.05587427    -0.30690
H783        H  0.50770869  0.68603835  0.06192368     0.13510
H784        H  0.60507951  0.71287346  0.05777620     0.14090
C785        C  0.55375118  0.64657475  0.26875265    -0.15510
C786        C  0.52254695  0.61028873  0.28326582    -0.30690
H787        H  0.55722560  0.64853174  0.24179299     0.13510
H788        H  0.51669816  0.61065338  0.30991212     0.14090
C789        C  0.62638541  0.81728486  0.15380371    -0.15510
C790        C  0.60742692  0.79182582  0.18031771    -0.30690
H791        H  0.65461290  0.84942971  0.15713370     0.13510
H792        H  0.57653350  0.76182086  0.17688697     0.14090
C793        C  0.71176298  0.84568309  0.48650971    -0.15510
C794        C  0.74629142  0.87932729  0.50093133    -0.30690
H795        H  0.68887464  0.81869461  0.50185784     0.13510
H796        H  0.76686897  0.90825129  0.48644918     0.14090
C797        C  0.20175257  0.25432005  0.60710356    -0.15510
C798        C  0.19246090  0.21486346  0.61742095    -0.30690
H799        H  0.23560812  0.28023770  0.60539007     0.13510
H800        H  0.15891340  0.18817148  0.61587939     0.14090
C801        C  0.28173279  0.41806439  0.05848774    -0.15510
C802        C  0.31318742  0.45707257  0.04811765    -0.30690
H803        H  0.28794404  0.39106212  0.05882141     0.13510
H804        H  0.30842791  0.48483247  0.05101989     0.14090
C805        C  0.21495847  0.19831698  0.39651547    -0.15510
C806        C  0.24227619  0.18579687  0.38374531    -0.30690
H807        H  0.19874437  0.18468443  0.42014135     0.13510
H808        H  0.25559848  0.19584751  0.35879260     0.14090
C809        C  0.13956986  0.27297397  0.48651155    -0.15510
C810        C  0.14147931  0.29803571  0.51228857    -0.30690
H811        H  0.13332068  0.24029884  0.49115356     0.13510
H812        H  0.14440366  0.32949367  0.50802462     0.14090
C813        C  0.19386570  0.39244014  0.18312147    -0.15510
C814        C  0.18217337  0.36698270  0.15585123    -0.30690
H815        H  0.20920082  0.42732954  0.17991966     0.13510
H816        H  0.16940073  0.33233976  0.15809831     0.14090
C817        C  0.35989257  0.44937446  0.28449765    -0.15510
C818        C  0.37175622  0.48532791  0.26651936    -0.30690
H819        H  0.38438831  0.44049131  0.29093742     0.13510
H820        H  0.34776263  0.49441681  0.25908380     0.14090
C821        C  0.80166514  0.75307980  0.39163036    -0.15510
C822        C  0.80775331  0.79193279  0.38282485    -0.30690
H823        H  0.76896793  0.72487785  0.39104935     0.13510
H824        H  0.83958966  0.82062268  0.38682392     0.14090
C825        C  0.69833799  0.54164999  0.92592063    -0.15510
C826        C  0.69059420  0.55456621  0.95530530    -0.30690
H827        H  0.67162289  0.52282503  0.90861696     0.13510
H828        H  0.71783732  0.57731500  0.97079653     0.14090
C829        C  0.64666079  0.54973352  0.72323138    -0.15510
C830        C  0.63090442  0.50753519  0.72997925    -0.30690
H831        H  0.62660139  0.56441212  0.72842407     0.13510
H832        H  0.64937650  0.49192310  0.72243630     0.14090
C833        C  0.79349358  0.60096706  0.81528207    -0.15510
C834        C  0.81601605  0.62118111  0.84282361    -0.30690
H835        H  0.76495817  0.56873918  0.81733239     0.13510
H836        H  0.84684274  0.65151479  0.84118127     0.14090
C837        C  0.79126521  0.81223127  0.62457587    -0.15510
C838        C  0.75916502  0.80695799  0.60369904    -0.30690
H839        H  0.81733506  0.84477252  0.63059129     0.13510
H840        H  0.73622137  0.77470806  0.59439849     0.14090
C841        C  0.87191633  0.73581104  0.51741362    -0.15510
C842        C  0.85335868  0.70998758  0.49078890    -0.30690
H843        H  0.89444407  0.77019309  0.51372770     0.13510
H844        H  0.82848694  0.67620829  0.49393232     0.14090
C845        C  0.20235987  0.94698019  0.61069270    -0.15510
C846        C  0.19487031  0.97434896  0.62881175    -0.30690
H847        H  0.23587210  0.95641031  0.60396005     0.13510
H848        H  0.16144301  0.96747127  0.63252872     0.14090
C849        C  0.04540936  0.82711673  0.60516215    -0.15510
C850        C  0.02357584  0.78365337  0.60592403    -0.30690
H851        H  0.03213810  0.84512188  0.61782195     0.13510
H852        H  0.03908326  0.76605783  0.59614554     0.14090
C853        C  0.21693850  0.02243211  0.37464653    -0.15510
C854        C  0.25290233  0.04984045  0.39209707    -0.30690
H855        H  0.19133445  0.03059276  0.37082793     0.13510
H856        H  0.27606416  0.03951432  0.39927191     0.14090
C857        C  0.97993620  0.76687285  0.39746968    -0.15510
C858        C  0.95816888  0.78887252  0.39807592    -0.30690
H859        H  0.96437987  0.73416876  0.40744033     0.13510
H860        H  0.97131269  0.81966897  0.38517468     0.14090
C861        C  0.13364927  0.86642071  0.48369502    -0.15510
C862        C  0.14795963  0.85383852  0.51012801    -0.30690
H863        H  0.11485537  0.88272995  0.48775729     0.13510
H864        H  0.16838394  0.83917910  0.50683840     0.14090
C865        C  0.18505202  0.78822491  0.18258703    -0.15510
C866        C  0.18752527  0.81244129  0.15613555    -0.30690
H867        H  0.19062717  0.76103005  0.17923216     0.13510
H868        H  0.18628106  0.84207895  0.15980852     0.14090
C869        C  0.52123660  0.90789004  0.27802314    -0.15510
C870        C  0.52980600  0.87678136  0.26824238    -0.30690
H871        H  0.53563506  0.92619333  0.30082131     0.13510
H872        H  0.51196914  0.85614638  0.24714386     0.14090
C873        C  0.34556877  0.88988263  0.26568309    -0.15510
C874        C  0.38597937  0.91926589  0.27589190    -0.30690
H875        H  0.34209937  0.86985211  0.24402092     0.13510
H876        H  0.39057396  0.93623499  0.29947615     0.14090
C877        C  0.47511202  0.08793999  0.71842895    -0.15510
C878        C  0.45851749  0.11080759  0.73277453    -0.30690
H879        H  0.46816963  0.07871301  0.69227297     0.13510
H880        H  0.46925304  0.12383655  0.75778186     0.14090
C881        C  0.28135800  0.86472087  0.05558155    -0.15510
C882        C  0.31307002  0.85927143  0.04195135    -0.30690
H883        H  0.28661828  0.89731967  0.05876584     0.13510
H884        H  0.30985889  0.82728150  0.04207828     0.14090
C885        C  0.54724991  0.84660498  0.06389185    -0.15510
C886        C  0.57355912  0.88924095  0.05932823    -0.30690
H887        H  0.51347857  0.83099033  0.05523056     0.13510
H888        H  0.60827257  0.90434414  0.06515801     0.14090
C889        C  0.46312514  0.92372848  0.16888358    -0.15510
C890        C  0.46202316  0.95616355  0.15295332    -0.30690
H891        H  0.47281334  0.90324408  0.15545334     0.13510
H892        H  0.45710825  0.97933520  0.16739493     0.14090
C893        C  0.45979845  0.16010380  0.92897924    -0.15510
C894        C  0.43541110  0.12833107  0.95064041    -0.30690
H895        H  0.48915471  0.16235920  0.91811641     0.13510
H896        H  0.40483401  0.12489208  0.95995858     0.14090
C897        C  0.51483402  0.05556707  0.84573622    -0.15510
C898        C  0.51538006  0.03168426  0.81992250    -0.30690
H899        H  0.51964408  0.08772454  0.84106587     0.13510
H900        H  0.51475409  0.00131586  0.82453091     0.14090
C901        C  0.12202965  0.46446015  0.27000669    -0.15510
C902        C  0.09778685  0.48151988  0.28080262    -0.30690
H903        H  0.13975533  0.47598347  0.24657886     0.13510
H904        H  0.08372062  0.47447568  0.30571629     0.14090
C905        C  0.12396299  0.63222733  0.26439260    -0.15510
C906        C  0.10687842  0.64081269  0.29131794    -0.30690
H907        H  0.14722142  0.65882245  0.24889946     0.13510
H908        H  0.08056360  0.61439819  0.30508080     0.14090
C909        C  0.86988088  0.50332560  0.73521686    -0.15510
C910        C  0.89591940  0.54538402  0.72804430    -0.30690
H911        H  0.83554181  0.48706462  0.72801228     0.13510
H912        H  0.93093708  0.56021827  0.73262682     0.14090
C913        C  0.11458474  0.42782515  0.06095167    -0.15510
C914        C  0.15827635  0.45028046  0.06523380    -0.30690
H915        H  0.09681978  0.39364704  0.06739314     0.13510
H916        H  0.17698274  0.48322719  0.05594958     0.14090
C917        C  0.05375494  0.54013688  0.15268759    -0.15510
C918        C  0.08186016  0.53099386  0.16816081    -0.30690
H919        H  0.03649515  0.55299726  0.16702255     0.13510
H920        H  0.09548897  0.51366953  0.15495829     0.14090
C921        C  0.12365493  0.68274762  0.06691162    -0.15510
C922        C  0.16740149  0.70699858  0.06474446    -0.30690
H923        H  0.10536723  0.69637054  0.07872307     0.13510
H924        H  0.18555616  0.69589283  0.04961022     0.14090
C925        C  0.88602093  0.57566644  0.94255501    -0.15510
C926        C  0.84252538  0.55047342  0.93959167    -0.30690
H927        H  0.90207975  0.60935257  0.93482491     0.13510
H928        H  0.82632438  0.51799115  0.95002213     0.14090
C929        C  0.94108734  0.48483773  0.84840773    -0.15510
C930        C  0.95863917  0.47733386  0.82115967    -0.30690
H931        H  0.90995382  0.48411402  0.84589997     0.13510
H932        H  0.98714024  0.47329488  0.82359501     0.14090
C933        C  0.81788270  0.03515367  0.39951278    -0.15510
C934        C  0.77472831  0.01843631  0.39373668    -0.30690
H935        H  0.83380070  0.01697085  0.39205317     0.13510
H936        H  0.75951747  0.03807644  0.39830912     0.14090
C937        C  0.95797608  0.17512887  0.39464943    -0.15510
C938        C  0.97606754  0.21808761  0.39025263    -0.30690
H939        H  0.97512013  0.15870994  0.38576195     0.13510
H940        H  0.95748512  0.23404571  0.39644601     0.14090
C941        C  0.70495220  0.16179223  0.93681267    -0.15510
C942        C  0.68062579  0.11934287  0.93053742    -0.30690
H943        H  0.69391715  0.17675168  0.95527079     0.13510
H944        H  0.69349207  0.10313191  0.91502318     0.14090
C945        C  0.85642404  0.28551602  0.94528292    -0.15510
C946        C  0.87186228  0.32569239  0.93371241    -0.30690
H947        H  0.86471417  0.28015959  0.97029781     0.13510
H948        H  0.85913489  0.33031602  0.91024977     0.14090
C949        C  0.90586297  0.35254415  0.72537454    -0.15510
C950        C  0.87909866  0.36867568  0.73103340    -0.30690
H951        H  0.94072771  0.37230657  0.73043197     0.13510
H952        H  0.84497808  0.35017063  0.72332239     0.14090
C953        C  0.64560924  0.11829731  0.71623044    -0.15510
C954        C  0.61230501  0.07787038  0.72110676    -0.30690
H955        H  0.64110077  0.14562077  0.72232474     0.13510
H956        H  0.61735830  0.05034722  0.71793749     0.14090
C957        C  0.80132411  0.21258891  0.83554880    -0.15510
C958        C  0.78968537  0.17531910  0.81952802    -0.30690
H959        H  0.82014123  0.24311750  0.82242034     0.13510
H960        H  0.77541815  0.14517717  0.83345611     0.14090
C961        C  0.05608681  0.24595073  0.61773637    -0.15510
C962        C  0.01686909  0.21619309  0.60574358    -0.30690
H963        H  0.05887015  0.26062192  0.64212490     0.13510
H964        H  0.01527576  0.19928708  0.58263059     0.14090
C965        C  0.76389934  0.97720478  0.61162737    -0.15510
C966        C  0.79052822  0.96058061  0.60799308    -0.30690
H967        H  0.72996563  0.95863929  0.60348040     0.13510
H968        H  0.82367052  0.97744313  0.61794892     0.14090
C969        C  0.85174913  0.12384578  0.51566350    -0.15510
C970        C  0.85464849  0.14754919  0.48873599    -0.30690
H971        H  0.85444778  0.09492495  0.51230421     0.13510
H972        H  0.85622028  0.17863974  0.49171156     0.14090
loop_ 
_geom_bond_atom_site_label_1 
_geom_bond_atom_site_label_2 
_geom_bond_distance 
_geom_bond_site_symmetry_2 
_ccdc_geom_bond_type 
Zr1           O2   2.440       .  S
Zr1           O3   2.440       .  S
Zr1           O4   2.436       .  S
Zr1           O7   2.428       .  S
Zr1           O9   2.379       .  S
Zr1          O10   2.382       .  S
Zr1          O11   2.406       .  S
Zr1          O12   2.404       .  S
O2           H58   0.990       .  S
O2           H66   0.990       .  S
O3           C23   1.285       .  A
O4           C25   1.284       .  A
O5          Zr15   2.436       .  S
O5           C24   1.284       .  A
O6          Zr14   2.437       .  S
O6           C25   1.286       .  A
O7           C24   1.285       .  A
O8          Zr16   2.415       .  S
O8           C23   1.279       .  A
O9          Zr14   2.388       .  S
O9          Zr16   2.377       .  S
O10         Zr15   2.392       .  S
O10         Zr16   2.372       .  S
O10          H45   0.966       .  S
O11         Zr14   2.400       .  S
O11         Zr31   2.396       .  S
O11          H48   0.966       .  S
O12         Zr15   2.397       .  S
O12         Zr31   2.405       .  S
Zr13         O38   2.440       .  S
Zr13         O32   2.421       .  S
Zr13         O40   2.423       .  S
Zr13         O28   2.417       .  S
Zr13         O19   2.396       .  S
Zr13         O20   2.399       .  S
Zr13         O21   2.375       .  S
Zr13         O22   2.379       .  S
Zr14         O33   2.436       .  S
Zr14         O26   2.435       .  S
Zr14         O27   2.438       .  S
Zr14         O20   2.397       .  S
Zr14         O21   2.385       .  S
Zr15         O17   2.435       .  S
Zr15         O39   2.436       .  S
Zr15         O41   2.442       .  S
Zr15         O19   2.392       .  S
Zr15         O22   2.388       .  S
Zr16         O42   2.437       .  S
Zr16         O43   2.435       .  S
Zr16         O18   2.436       .  S
Zr16         O19   2.396       .  S
Zr16         O20   2.390       .  S
O17          H54   0.990       .  S
O18          H49   0.990       .  S
O18          H63   0.990       .  S
O20          H46   0.966       .  S
O21         Zr31   2.370       .  S
O22         Zr31   2.370       .  S
O22          H47   0.966       .  S
C23         C958   1.468       .  S
C24         C949   1.477       .  S
C25         C953   1.478       .  S
O26          H62   0.990       .  S
O27          C29   1.285       .  A
O28          C29   1.283       .  A
C29         C965   1.471   1_545  S
O30         Zr31   2.439       .  S
O30          H59   0.990       .  S
Zr31         O34   2.437       .  S
Zr31         O35   2.439       .  S
Zr31         O36   2.443       .  S
O32          C37   1.282       .  A
O33          H50   0.990       .  S
O33          H65   0.990       .  S
O34          H51   0.990       .  S
O35          H55   0.990       .  S
O35          H64   0.990       .  S
O36          C37   1.286       .  A
C37         C969   1.476       .  S
O38          H57   0.990       .  S
O38          H61   0.990       .  S
O39          H53   0.990       .  S
O39          H60   0.990       .  S
O40          C44   1.283       .  A
O41          C44   1.287       .  A
O42          H52   0.990       .  S
O43          H56   0.990       .  S
C44         C962   1.471   1_655  S
C67         C941   1.474       .  S
C67          C68   1.401       .  A
C67          C72   1.406       .  A
C68          C69   1.398       .  A
C68          H73   1.084       .  S
C69         C945   1.475       .  S
C69          C70   1.404       .  A
C70          C71   1.398       .  A
C70          H74   1.084       .  S
C71         C957   1.477       .  S
C71          C72   1.403       .  A
C72          H75   1.084       .  S
C76         C933   1.480       .  S
C76          C77   1.405       .  A
C76          C81   1.403       .  A
C77          C78   1.407       .  A
C77          H82   1.084       .  S
C78         C970   1.480       .  S
C78          C79   1.403       .  A
C79          C80   1.406       .  A
C79          H83   1.084       .  S
C80         C937   1.481       .  S
C80          C81   1.403       .  A
C81          H84   1.084       .  S
Zr85         O86   2.438       .  S
Zr85         O87   2.411       .  S
Zr85         O88   2.418       .  S
Zr85         O91   2.399       .  S
Zr85         O93   2.369       .  S
Zr85         O94   2.380       .  S
Zr85         O95   2.389   1_556  S
Zr85         O96   2.397   1_556  S
O86         H142   0.990       .  S
O86         H150   0.990       .  S
O87         C107   1.280       .  A
O88         C109   1.283       .  A
O89         Zr99   2.451   1_556  S
O89         C108   1.288       .  A
O90         Zr98   2.421   1_656  S
O90         C109   1.280       .  A
O91         C108   1.279       .  A
O92        Zr100   2.459   1_655  S
O92         C107   1.288       .  A
O93         Zr98   2.380   1_656  S
O93        Zr100   2.370   1_655  S
O94         Zr99   2.389   1_556  S
O94        Zr100   2.363   1_655  S
O94         H129   0.966       .  S
O95         Zr98   2.392   1_655  S
O95        Zr115   2.388       .  S
O95         H132   0.966       .  S
O96         Zr99   2.391       .  S
O96        Zr115   2.393       .  S
Zr97        O122   2.440       .  S
Zr97        O116   2.436       .  S
Zr97        O124   2.446       .  S
Zr97        O112   2.454       .  S
Zr97        O103   2.408   1_554  S
Zr97        O104   2.409   1_554  S
Zr97        O105   2.376       .  S
Zr97        O106   2.386       .  S
Zr98        O117   2.438   1_455  S
Zr98        O110   2.435   1_554  S
Zr98        O111   2.409       .  S
Zr98        O104   2.397   1_554  S
Zr98        O105   2.378       .  S
Zr99        O101   2.435       .  S
Zr99        O123   2.436   1_654  S
Zr99        O125   2.438   1_655  S
Zr99        O103   2.400   1_654  S
Zr99        O106   2.388   1_655  S
Zr100       O126   2.435       .  S
Zr100       O127   2.435       .  S
Zr100       O102   2.436       .  S
Zr100       O103   2.410       .  S
Zr100       O104   2.408       .  S
O101        H138   0.990       .  S
O102        H133   0.990       .  S
O102        H147   0.990       .  S
O104        H130   0.966       .  S
O105       Zr115   2.371   1_455  S
O106       Zr115   2.377   1_455  S
O106        H131   0.965       .  S
C107        C929   1.477       .  S
C108        C946   1.461       .  S
C109        C925   1.465       .  S
O110        H146   0.990       .  S
O111        C113   1.280       .  A
O112        C113   1.288       .  A
C113        C921   1.470       .  S
O114       Zr115   2.440       .  S
O114        H143   0.990       .  S
Zr115       O118   2.437       .  S
Zr115       O119   2.442       .  S
Zr115       O120   2.414   1_655  S
O116        C121   1.285       .  A
O117        H134   0.990       .  S
O117        H149   0.990       .  S
O118        H135   0.990       .  S
O119        H139   0.990       .  S
O119        H148   0.989       .  S
O120        C121   1.280       .  A
C121        C917   1.465       .  S
O122        H141   0.990       .  S
O122        H145   0.990       .  S
O123        H137   0.990       .  S
O123        H144   0.990       .  S
O124        C128   1.288       .  A
O125        C128   1.286       .  A
O126        H136   0.990       .  S
O127        H140   0.990       .  S
C128        C913   1.480       .  S
C151        C950   1.480       .  S
C151        C152   1.402       .  A
C151        C156   1.407       .  A
C152        C153   1.400       .  A
C152        H157   1.084       .  S
C153        C909   1.483       .  S
C153        C154   1.407       .  A
C154        C155   1.409       .  A
C154        H158   1.084       .  S
C155        C930   1.485       .  S
C155        C156   1.403       .  A
C156        H159   1.084       .  S
C160        C905   1.476       .  S
C160        C161   1.400       .  A
C160        C165   1.408       .  A
C161        C162   1.399       .  A
C161        H166   1.085       .  S
C162        C918   1.474       .  S
C162        C163   1.396       .  A
C163        C164   1.407       .  A
C163        H167   1.084       .  S
C164        C902   1.483       .  S
C164        C165   1.406       .  A
C165        H168   1.084       .  S
Zr169       O170   2.442       .  S
Zr169       O171   2.454       .  S
Zr169       O172   2.429       .  S
Zr169       O175   2.406       .  S
Zr169       O177   2.371       .  S
Zr169       O178   2.382       .  S
Zr169       O179   2.403   1_554  S
Zr169       O180   2.404   1_554  S
O170        H226   0.990       .  S
O170        H234   0.990       .  S
O171        C191   1.288       .  A
O172        C193   1.283       .  A
O173       Zr183   2.453   1_554  S
O173        C192   1.289       .  A
O174       Zr182   2.415   1_564  S
O174        C193   1.279       .  A
O175        C192   1.279       .  A
O176       Zr184   2.411       .  S
O176        C191   1.279   1_545  A
O177       Zr182   2.390   1_564  S
O177       Zr184   2.377   1_565  S
O178       Zr183   2.384   1_554  S
O178       Zr184   2.380   1_565  S
O178        H213   0.965       .  S
O179       Zr182   2.395   1_565  S
O179       Zr199   2.408       .  S
O179        H216   0.966       .  S
O180       Zr183   2.394       .  S
O180       Zr199   2.398       .  S
Zr181       O206   2.442       .  S
Zr181       O200   2.423       .  S
Zr181       O208   2.413       .  S
Zr181       O196   2.437       .  S
Zr181       O187   2.397   1_556  S
Zr181       O188   2.396   1_556  S
Zr181       O189   2.372       .  S
Zr181       O190   2.384       .  S
Zr182       O201   2.439   1_545  S
Zr182       O194   2.435   1_556  S
Zr182       O195   2.413       .  S
Zr182       O188   2.394   1_556  S
Zr182       O189   2.384       .  S
Zr183       O185   2.434       .  S
Zr183       O207   2.438   1_566  S
Zr183       O209   2.446   1_565  S
Zr183       O187   2.398   1_566  S
Zr183       O190   2.387   1_565  S
Zr184       O210   2.435       .  S
Zr184       O211   2.435       .  S
Zr184       O186   2.437       .  S
Zr184       O187   2.389       .  S
Zr184       O188   2.399       .  S
O185        H222   0.990       .  S
O186        H217   0.990       .  S
O186        H231   0.990       .  S
O188        H214   0.966       .  S
O189       Zr199   2.365   1_545  S
O190       Zr199   2.376   1_545  S
O190        H215   0.966       .  S
C191        C890   1.471       .  S
C192        C882   1.471       .  S
C193        C886   1.468       .  S
O194        H230   0.990       .  S
O195        C197   1.280       .  A
O196        C197   1.286       .  A
C197        C942   1.463       .  S
O198       Zr199   2.439       .  S
O198        H227   0.990       .  S
Zr199       O202   2.437       .  S
Zr199       O203   2.439       .  S
Zr199       O204   2.444   1_565  S
O200        C205   1.282       .  A
O201        H218   0.990       .  S
O201        H233   0.990       .  S
O202        H219   0.990       .  S
O203        H223   0.990       .  S
O203        H232   0.990       .  S
O204        C205   1.287       .  A
C205        C897   1.477       .  S
O206        H225   0.990       .  S
O206        H229   0.990       .  S
O207        H221   0.990       .  S
O207        H228   0.990       .  S
O208        C212   1.283       .  A
O209        C212   1.287       .  A
O210        H220   0.990       .  S
O211        H224   0.990       .  S
C212        C894   1.479       .  S
C235        C954   1.476       .  S
C235        C236   1.399       .  A
C235        C240   1.406       .  A
C236        C237   1.399       .  A
C236        H241   1.085       .  S
C237        C898   1.478       .  S
C237        C238   1.407       .  A
C238        C239   1.410       .  A
C238        H242   1.084       .  S
C239        C877   1.488       .  S
C239        C240   1.407       .  A
C240        H243   1.084       .  S
C244        C874   1.483       .  S
C244        C245   1.409       .  A
C244        C249   1.403       .  A
C245        C246   1.405       .  A
C245        H250   1.084       .  S
C246        C889   1.480       .  S
C246        C247   1.396       .  A
C247        C248   1.405       .  A
C247        H251   1.084       .  S
C248        C869   1.478       .  S
C248        C249   1.403       .  A
C249        H252   1.084       .  S
Zr253       O254   2.439       .  S
Zr253       O255   2.426       .  S
Zr253       O256   2.441       .  S
Zr253       O259   2.426       .  S
Zr253       O261   2.378       .  S
Zr253       O262   2.387       .  S
Zr253       O263   2.400       .  S
Zr253       O264   2.401       .  S
O254        H310   0.990       .  S
O254        H318   0.990       .  S
O255        C275   1.282       .  A
O256        C277   1.285       .  A
O257       Zr267   2.459       .  S
O257        C276   1.290       .  A
O258       Zr266   2.416       .  S
O258        C277   1.280       .  A
O259        C276   1.283       .  A
O260       Zr268   2.423       .  S
O260        C275   1.283       .  A
O261       Zr266   2.386       .  S
O261       Zr268   2.371       .  S
O262       Zr267   2.392       .  S
O262       Zr268   2.374       .  S
O262        H297   0.966       .  S
O263       Zr266   2.399       .  S
O263       Zr283   2.400       .  S
O263        H300   0.966       .  S
O264       Zr267   2.400       .  S
O264       Zr283   2.397       .  S
Zr265       O290   2.439       .  S
Zr265       O284   2.420       .  S
Zr265       O292   2.411       .  S
Zr265       O280   2.431       .  S
Zr265       O271   2.404       .  S
Zr265       O272   2.395       .  S
Zr265       O273   2.372       .  S
Zr265       O274   2.382       .  S
Zr266       O285   2.436       .  S
Zr266       O278   2.433       .  S
Zr266       O279   2.430       .  S
Zr266       O272   2.392       .  S
Zr266       O273   2.381       .  S
Zr267       O269   2.434       .  S
Zr267       O291   2.436       .  S
Zr267       O293   2.461       .  S
Zr267       O271   2.396       .  S
Zr267       O274   2.392       .  S
Zr268       O294   2.435       .  S
Zr268       O295   2.435       .  S
Zr268       O270   2.436       .  S
Zr268       O271   2.398       .  S
Zr268       O272   2.393       .  S
O269        H306   0.990       .  S
O270        H301   0.990       .  S
O270        H315   0.990       .  S
O272        H298   0.966       .  S
O273       Zr283   2.378       .  S
O274       Zr283   2.369       .  S
O274        H299   0.965       .  S
C275        C861   1.474       .  S
C276        C853   1.480   1_565  S
C277        C857   1.470   1_455  S
O278        H314   0.990       .  S
O279        C281   1.282       .  A
O280        C281   1.286       .  A
C281        C906   1.475       .  S
O282       Zr283   2.439       .  S
O282        H311   0.990       .  S
Zr283       O286   2.436       .  S
Zr283       O287   2.440       .  S
Zr283       O288   2.433       .  S
O284        C289   1.281       .  A
O285        H302   0.990       .  S
O285        H317   0.990       .  S
O286        H303   0.990       .  S
O287        H307   0.990       .  S
O287        H316   0.990       .  S
O288        C289   1.284       .  A
C289        C865   1.472       .  S
O290        H309   0.990       .  S
O290        H313   0.990       .  S
O291        H305   0.990       .  S
O291        H312   0.990       .  S
O292        C296   1.281       .  A
O293        C296   1.290       .  A
O294        H304   0.990       .  S
O295        H308   0.990       .  S
C296        C873   1.472       .  S
C319        C881   1.483       .  S
C319        C320   1.410       .  A
C319        C324   1.402       .  A
C320        C321   1.403       .  A
C320        H325   1.083       .  S
C321        C922   1.485       .  S
C321        C322   1.405       .  A
C322        C323   1.403       .  A
C322        H326   1.084       .  S
C323        C866   1.478       .  S
C323        C324   1.400       .  A
C324        H327   1.084       .  S
C328        C845   1.484       .  S
C328        C329   1.401       .  A
C328        C333   1.410       .  A
C329        C330   1.398       .  A
C329        H334   1.085       .  S
C330        C862   1.469       .  S
C330        C331   1.401       .  A
C331        C332   1.404       .  A
C331        H335   1.084       .  S
C332        C849   1.479       .  S
C332        C333   1.403       .  A
C333        H336   1.083       .  S
Zr337       O338   2.437       .  S
Zr337       O339   2.402       .  S
Zr337       O340   2.450       .  S
Zr337       O343   2.427       .  S
Zr337       O345   2.377       .  S
Zr337       O346   2.386       .  S
Zr337       O347   2.395       .  S
Zr337       O348   2.401       .  S
O338        H394   0.990       .  S
O338        H402   0.990       .  S
O339        C359   1.278       .  A
O340        C361   1.288       .  A
O341       Zr351   2.448       .  S
O341        C360   1.287       .  A
O342       Zr350   2.421       .  S
O342        C361   1.282       .  A
O343        C360   1.286       .  A
O344       Zr352   2.433       .  S
O344        C359   1.285       .  A
O345       Zr350   2.384       .  S
O345       Zr352   2.372       .  S
O346       Zr351   2.386       .  S
O346       Zr352   2.368       .  S
O346        H381   0.966       .  S
O347       Zr350   2.398       .  S
O347       Zr367   2.397       .  S
O347        H384   0.966       .  S
O348       Zr351   2.397       .  S
O348       Zr367   2.393       .  S
Zr349       O374   2.445       .  S
Zr349       O368   2.428       .  S
Zr349       O376   2.415       .  S
Zr349       O364   2.435       .  S
Zr349       O355   2.399       .  S
Zr349       O356   2.397       .  S
Zr349       O357   2.372       .  S
Zr349       O358   2.386       .  S
Zr350       O369   2.437       .  S
Zr350       O362   2.435       .  S
Zr350       O363   2.426       .  S
Zr350       O356   2.392       .  S
Zr350       O357   2.378       .  S
Zr351       O353   2.434       .  S
Zr351       O375   2.437       .  S
Zr351       O377   2.449       .  S
Zr351       O355   2.398       .  S
Zr351       O358   2.387       .  S
Zr352       O378   2.436       .  S
Zr352       O379   2.435       .  S
Zr352       O354   2.435       .  S
Zr352       O355   2.395       .  S
Zr352       O356   2.401       .  S
O353        H390   0.990       .  S
O354        H385   0.990       .  S
O354        H399   0.990       .  S
O356        H382   0.966       .  S
O357       Zr367   2.371       .  S
O358       Zr367   2.380       .  S
O358        H383   0.966       .  S
C359        C833   1.462       .  S
C360        C829   1.480       .  S
C361        C910   1.477       .  S
O362        H398   0.990       .  S
O363        C365   1.283       .  A
O364        C365   1.285       .  A
C365        C850   1.473   1_655  S
O366       Zr367   2.439       .  S
O366        H395   0.990       .  S
Zr367       O370   2.437       .  S
Zr367       O371   2.439       .  S
Zr367       O372   2.419       .  S
O368        C373   1.283       .  A
O369        H386   0.990       .  S
O369        H401   0.990       .  S
O370        H387   0.990       .  S
O371        H391   0.990       .  S
O371        H400   0.990       .  S
O372        C373   1.282       .  A
C373        C841   1.471       .  S
O374        H393   0.990       .  S
O374        H397   0.990       .  S
O375        H389   0.990       .  S
O375        H396   0.990       .  S
O376        C380   1.280       .  A
O377        C380   1.288       .  A
O378        H388   0.990       .  S
O379        H392   0.990       .  S
C380        C837   1.469       .  S
C403        C825   1.465       .  S
C403        C404   1.399       .  A
C403        C408   1.396       .  A
C404        C405   1.399       .  A
C404        H409   1.084       .  S
C405        C926   1.471       .  S
C405        C406   1.405       .  A
C406        C407   1.397       .  A
C406        H410   1.084       .  S
C407        C834   1.468       .  S
C407        C408   1.402       .  A
C408        H411   1.084       .  S
C412        C858   1.478       .  S
C412        C413   1.405       .  A
C412        C417   1.402       .  A
C413        C414   1.401       .  A
C413        H418   1.084       .  S
C414        C842   1.468       .  S
C414        C415   1.397       .  A
C415        C416   1.398       .  A
C415        H419   1.085       .  S
C416        C821   1.473       .  S
C416        C417   1.406       .  A
C417        H420   1.084       .  S
Zr421       O422   2.437       .  S
Zr421       O423   2.423       .  S
Zr421       O424   2.433       .  S
Zr421       O427   2.430       .  S
Zr421       O429   2.376       .  S
Zr421       O430   2.383       .  S
Zr421       O431   2.401       .  S
Zr421       O432   2.402       .  S
O422        H478   0.990       .  S
O422        H486   0.990       .  S
O423        C443   1.282       .  A
O424        C445   1.284       .  A
O425       Zr435   2.441       .  S
O425        C444   1.286       .  A
O426       Zr434   2.447       .  S
O426        C445   1.287       .  A
O427        C444   1.286       .  A
O428       Zr436   2.427       .  S
O428        C443   1.283       .  A
O429       Zr434   2.389       .  S
O429       Zr436   2.376       .  S
O430       Zr435   2.390       .  S
O430       Zr436   2.367       .  S
O430        H465   0.966       .  S
O431       Zr434   2.397       .  S
O431       Zr451   2.400       .  S
O431        H468   0.966       .  S
O432       Zr435   2.401       .  S
O432       Zr451   2.405       .  S
Zr433       O458   2.440       .  S
Zr433       O452   2.424       .  S
Zr433       O460   2.404       .  S
Zr433       O448   2.421       .  S
Zr433       O439   2.399       .  S
Zr433       O440   2.397       .  S
Zr433       O441   2.376       .  S
Zr433       O442   2.377       .  S
Zr434       O453   2.435       .  S
Zr434       O446   2.435       .  S
Zr434       O447   2.440       .  S
Zr434       O440   2.399       .  S
Zr434       O441   2.389       .  S
Zr435       O437   2.435       .  S
Zr435       O459   2.436       .  S
Zr435       O461   2.457       .  S
Zr435       O439   2.393       .  S
Zr435       O442   2.383       .  S
Zr436       O462   2.436       .  S
Zr436       O463   2.435       .  S
Zr436       O438   2.435       .  S
Zr436       O439   2.396       .  S
Zr436       O440   2.397       .  S
O437        H474   0.990       .  S
O438        H469   0.990       .  S
O438        H483   0.990       .  S
O440        H466   0.966       .  S
O441       Zr451   2.374       .  S
O442       Zr451   2.370       .  S
O442        H467   0.965       .  S
C443        C809   1.471       .  S
C444        C938   1.477   1_455  S
C445        C805   1.478       .  S
O446        H482   0.990       .  S
O447        C449   1.286       .  A
O448        C449   1.284       .  A
C449        C817   1.477       .  S
O450       Zr451   2.439       .  S
O450        H479   0.990       .  S
Zr451       O454   2.437       .  S
Zr451       O455   2.438       .  S
Zr451       O456   2.442       .  S
O452        C457   1.282       .  A
O453        H470   0.990       .  S
O453        H485   0.990       .  S
O454        H471   0.990       .  S
O455        H475   0.990       .  S
O455        H484   0.990       .  S
O456        C457   1.286       .  A
C457        C813   1.477       .  S
O458        H477   0.990       .  S
O458        H481   0.990       .  S
O459        H473   0.990       .  S
O459        H480   0.990       .  S
O460        C464   1.279       .  A
O461        C464   1.289       .  A
O462        H472   0.990       .  S
O463        H476   0.990       .  S
C464        C901   1.467       .  S
C487        C801   1.482       .  S
C487        C488   1.409       .  A
C487        C492   1.401       .  A
C488        C489   1.404       .  A
C488        H493   1.084       .  S
C489        C914   1.485       .  S
C489        C490   1.407       .  A
C490        C491   1.405       .  A
C490        H494   1.084       .  S
C491        C814   1.476       .  S
C491        C492   1.400       .  A
C492        H495   1.084       .  S
C496        C961   1.476       .  S
C496        C497   1.404       .  A
C496        C501   1.403       .  A
C497        C498   1.399       .  A
C497        H502   1.084       .  S
C498        C810   1.470       .  S
C498        C499   1.401       .  A
C499        C500   1.400       .  A
C499        H503   1.084       .  S
C500        C797   1.474       .  S
C500        C501   1.406       .  A
C501        H504   1.084       .  S
Zr505       O506   2.437       .  S
Zr505       O507   2.407       .  S
Zr505       O508   2.414       .  S
Zr505       O511   2.414       .  S
Zr505       O513   2.378       .  S
Zr505       O514   2.375       .  S
Zr505       O515   2.396       .  S
Zr505       O516   2.392       .  S
O506        H562   0.990       .  S
O506        H570   0.990       .  S
O507        C527   1.279       .  A
O508        C529   1.281       .  A
O509       Zr519   2.446       .  S
O509        C528   1.286       .  A
O510       Zr518   2.440       .  S
O510        C529   1.286       .  A
O511        C528   1.281       .  A
O512       Zr520   2.448       .  S
O512        C527   1.286       .  A
O513       Zr518   2.393       .  S
O513       Zr520   2.372       .  S
O514       Zr519   2.382       .  S
O514       Zr520   2.367       .  S
O514        H549   0.966       .  S
O515       Zr518   2.398       .  S
O515       Zr535   2.390       .  S
O515        H552   0.966       .  S
O516       Zr519   2.393       .  S
O516       Zr535   2.395       .  S
Zr517       O542   2.447       .  S
Zr517       O536   2.447       .  S
Zr517       O544   2.413       .  S
Zr517       O532   2.424       .  S
Zr517       O523   2.402       .  S
Zr517       O524   2.404       .  S
Zr517       O525   2.375       .  S
Zr517       O526   2.383       .  S
Zr518       O537   2.436       .  S
Zr518       O530   2.435       .  S
Zr518       O531   2.447       .  S
Zr518       O524   2.395       .  S
Zr518       O525   2.386       .  S
Zr519       O521   2.434       .  S
Zr519       O543   2.436       .  S
Zr519       O545   2.436       .  S
Zr519       O523   2.398       .  S
Zr519       O526   2.381       .  S
Zr520       O546   2.436       .  S
Zr520       O547   2.435       .  S
Zr520       O522   2.435       .  S
Zr520       O523   2.400       .  S
Zr520       O524   2.406       .  S
O521        H558   0.990       .  S
O522        H553   0.990       .  S
O522        H567   0.990       .  S
O524        H550   0.966       .  S
O525       Zr535   2.376       .  S
O526       Zr535   2.380       .  S
O526        H551   0.966       .  S
C527        C790   1.470       .  S
C528        C785   1.464       .  S
C529        C870   1.468       .  S
O530        H566   0.990       .  S
O531        C533   1.287       .  A
O532        C533   1.283       .  A
C533        C934   1.481   1_565  S
O534       Zr535   2.439       .  S
O534        H563   0.990       .  S
Zr535       O538   2.437       .  S
Zr535       O539   2.437       .  S
Zr535       O540   2.411       .  S
O536        C541   1.288       .  A
O537        H554   0.990       .  S
O537        H569   0.990       .  S
O538        H555   0.990       .  S
O539        H559   0.990       .  S
O539        H568   0.990       .  S
O540        C541   1.279       .  A
C541        C793   1.469       .  S
O542        H561   0.990       .  S
O542        H565   0.990       .  S
O543        H557   0.990       .  S
O543        H564   0.990       .  S
O544        C548   1.280       .  A
O545        C548   1.286       .  A
O546        H556   0.990       .  S
O547        H560   0.990       .  S
C548        C822   1.467       .  S
C571        C781   1.471       .  S
C571        C572   1.397       .  A
C571        C576   1.403       .  A
C572        C573   1.399       .  A
C572        H577   1.085       .  S
C573        C885   1.472       .  S
C573        C574   1.405       .  A
C574        C575   1.400       .  A
C574        H578   1.084       .  S
C575        C789   1.478       .  S
C575        C576   1.406       .  A
C576        H579   1.084       .  S
C580        C966   1.469       .  S
C580        C581   1.400       .  A
C580        C585   1.400       .  A
C581        C582   1.408       .  A
C581        H586   1.084       .  S
C582        C838   1.484       .  S
C582        C583   1.403       .  A
C583        C584   1.407       .  A
C583        H587   1.084       .  S
C584        C794   1.478       .  S
C584        C585   1.398       .  A
C585        H588   1.085       .  S
Zr589       O590   2.442       .  S
Zr589       O591   2.433       .  S
Zr589       O592   2.433       .  S
Zr589       O595   2.405       .  S
Zr589       O597   2.377       .  S
Zr589       O598   2.385       .  S
Zr589       O599   2.399       .  S
Zr589       O600   2.396       .  S
O590        H646   0.990       .  S
O590        H654   0.991       .  S
O591        C611   1.282       .  A
O592        C613   1.281       .  A
O593       Zr603   2.451       .  S
O593        C612   1.288       .  A
O594       Zr602   2.431       .  S
O594        C613   1.284       .  A
O595        C612   1.278       .  A
O596       Zr604   2.437       .  S
O596        C611   1.284       .  A
O597       Zr602   2.396       .  S
O597       Zr604   2.378       .  S
O598       Zr603   2.394       .  S
O598       Zr604   2.375       .  S
O598        H633   0.966       .  S
O599       Zr602   2.400       .  S
O599       Zr619   2.392       .  S
O599        H636   0.966       .  S
O600       Zr603   2.400       .  S
O600       Zr619   2.389       .  S
Zr601       O626   2.439       .  S
Zr601       O620   2.434       .  S
Zr601       O628   2.424       .  S
Zr601       O616   2.431       .  S
Zr601       O607   2.406       .  S
Zr601       O608   2.404       .  S
Zr601       O609   2.375       .  S
Zr601       O610   2.380       .  S
Zr602       O621   2.437       .  S
Zr602       O614   2.435       .  S
Zr602       O615   2.434       .  S
Zr602       O608   2.394       .  S
Zr602       O609   2.388       .  S
Zr603       O605   2.435       .  S
Zr603       O627   2.436       .  S
Zr603       O629   2.463       .  S
Zr603       O607   2.395       .  S
Zr603       O610   2.383       .  S
Zr604       O630   2.435       .  S
Zr604       O631   2.435       .  S
Zr604       O606   2.436       .  S
Zr604       O607   2.405       .  S
Zr604       O608   2.403       .  S
O605        H642   0.990       .  S
O606        H637   0.990       .  S
O606        H651   0.990       .  S
O608        H634   0.966       .  S
O609       Zr619   2.373       .  S
O610       Zr619   2.373       .  S
O610        H635   0.965       .  S
C611        C778   1.479       .  S
C612        C846   1.468   1_545  S
C613        C798   1.472       .  S
O614        H650   0.990       .  S
O615        C617   1.284       .  A
O616        C617   1.285       .  A
C617        C773   1.476       .  S
O618       Zr619   2.439       .  S
O618        H647   0.990       .  S
Zr619       O622   2.437       .  S
Zr619       O623   2.437       .  S
Zr619       O624   2.419       .  S
O620        C625   1.285       .  A
O621        H638   0.990       .  S
O621        H653   0.990       .  S
O622        H639   0.990       .  S
O623        H643   0.990       .  S
O623        H652   0.990       .  S
O624        C625   1.280       .  A
C625        C769   1.468       .  S
O626        H645   0.990       .  S
O626        H649   0.990       .  S
O627        H641   0.990       .  S
O627        H648   0.990       .  S
O628        C632   1.283       .  A
O629        C632   1.291       .  A
O630        H640   0.990       .  S
O631        H644   0.990       .  S
C632        C878   1.479       .  S
C655        C766   1.475       .  S
C655        C656   1.404       .  A
C655        C660   1.404       .  A
C656        C657   1.403       .  A
C656        H661   1.084       .  S
C657        C893   1.469       .  S
C657        C658   1.399       .  A
C658        C659   1.402       .  A
C658        H662   1.084       .  S
C659        C770   1.474       .  S
C659        C660   1.398       .  A
C660        H663   1.084       .  S
C664        C854   1.489       .  S
C664        C665   1.411       .  A
C664        C669   1.406       .  A
C665        C666   1.407       .  A
C665        H670   1.083       .  S
C666        C806   1.485       .  S
C666        C667   1.405       .  A
C667        C668   1.401       .  A
C667        H671   1.084       .  S
C668        C777   1.480       .  S
C668        C669   1.405       .  A
C669        H672   1.084       .  S
Zr673       O674   2.439       .  S
Zr673       O675   2.424       .  S
Zr673       O676   2.423       .  S
Zr673       O679   2.421       .  S
Zr673       O681   2.379       .  S
Zr673       O682   2.377       .  S
Zr673       O683   2.401   1_556  S
Zr673       O684   2.396   1_556  S
O674        H730   0.990       .  S
O674        H738   0.990       .  S
O675        C695   1.282       .  A
O676        C697   1.283       .  A
O677       Zr687   2.419   1_556  S
O677        C696   1.281       .  A
O678       Zr686   2.436       .  S
O678        C697   1.284       .  A
O679        C696   1.284       .  A
O680       Zr688   2.443       .  S
O680        C695   1.286       .  A
O681       Zr686   2.396       .  S
O681       Zr688   2.372       .  S
O682       Zr687   2.388   1_556  S
O682       Zr688   2.372       .  S
O682        H717   0.966       .  S
O683       Zr686   2.400   1_554  S
O683       Zr703   2.393       .  S
O683        H720   0.966       .  S
O684       Zr687   2.391       .  S
O684       Zr703   2.392       .  S
Zr685       O710   2.443       .  S
Zr685       O704   2.433       .  S
Zr685       O712   2.427       .  S
Zr685       O700   2.414       .  S
Zr685       O691   2.399   1_554  S
Zr685       O692   2.404   1_554  S
Zr685       O693   2.378       .  S
Zr685       O694   2.376       .  S
Zr686       O705   2.437   1_556  S
Zr686       O698   2.434       .  S
Zr686       O699   2.450   1_556  S
Zr686       O692   2.396       .  S
Zr686       O693   2.383   1_556  S
Zr687       O689   2.435       .  S
Zr687       O711   2.437   1_554  S
Zr687       O713   2.426       .  S
Zr687       O691   2.393   1_554  S
Zr687       O694   2.380       .  S
Zr688       O714   2.435       .  S
Zr688       O715   2.435       .  S
Zr688       O690   2.437       .  S
Zr688       O691   2.407       .  S
Zr688       O692   2.399       .  S
O689        H726   0.990       .  S
O690        H721   0.990       .  S
O690        H735   0.990       .  S
O692        H718   0.966       .  S
O693       Zr703   2.376       .  S
O694       Zr703   2.373       .  S
O694        H719   0.966       .  S
C695        C761   1.478       .  S
C696        C826   1.462       .  S
C697        C765   1.470       .  S
O698        H734   0.990       .  S
O699        C701   1.288       .  A
O700        C701   1.280       .  A
C701        C802   1.474       .  S
O702       Zr703   2.439       .  S
O702        H731   0.990       .  S
Zr703       O706   2.436       .  S
Zr703       O707   2.440       .  S
Zr703       O708   2.422       .  S
O704        C709   1.284       .  A
O705        H722   0.990       .  S
O705        H737   0.990       .  S
O706        H723   0.990       .  S
O707        H727   0.990       .  S
O707        H736   0.990       .  S
O708        C709   1.283       .  A
C709        C757   1.474       .  S
O710        H729   0.990       .  S
O710        H733   0.990       .  S
O711        H725   0.990       .  S
O711        H732   0.990       .  S
O712        C716   1.285       .  A
O713        C716   1.282       .  A
O714        H724   0.990       .  S
O715        H728   0.990       .  S
C716        C782   1.472       .  S
C739        C774   1.480       .  S
C739        C740   1.402       .  A
C739        C744   1.406       .  A
C740        C741   1.402       .  A
C740        H745   1.084       .  S
C741        C830   1.481       .  S
C741        C742   1.407       .  A
C742        C743   1.405       .  A
C742        H746   1.084       .  S
C743        C762   1.477       .  S
C743        C744   1.402       .  A
C744        H747   1.084       .  S
C748        C818   1.471       .  S
C748        C749   1.403       .  A
C748        C753   1.400       .  A
C749        C750   1.405       .  A
C749        H754   1.084       .  S
C750        C786   1.488       .  S
C750        C751   1.409       .  A
C751        C752   1.399       .  A
C751        H755   1.083       .  S
C752        C758   1.473       .  S
C752        C753   1.401       .  A
C753        H756   1.084       .  S
C757        C758   1.343       .  D
C757        H759   1.087       .  S
C758        H760   1.087       .  S
C761        C762   1.343       .  D
C761        H763   1.088       .  S
C762        H764   1.086       .  S
C765        C766   1.343       .  D
C765        H767   1.087       .  S
C766        H768   1.087       .  S
C769        C770   1.338       .  D
C769        H771   1.087       .  S
C770        H772   1.087       .  S
C773        C774   1.344       .  D
C773        H775   1.087       .  S
C774        H776   1.087       .  S
C777        C778   1.343       .  D
C777        H779   1.087       .  S
C778        H780   1.087       .  S
C781        C782   1.340       .  D
C781        H783   1.087       .  S
C782        H784   1.087       .  S
C785        C786   1.343       .  D
C785        H787   1.084       .  S
C786        H788   1.087       .  S
C789        C790   1.340       .  D
C789        H791   1.087       .  S
C790        H792   1.088       .  S
C793        C794   1.338       .  D
C793        H795   1.087       .  S
C794        H796   1.087       .  S
C797        C798   1.340       .  D
C797        H799   1.087       .  S
C798        H800   1.088       .  S
C801        C802   1.341       .  D
C801        H803   1.087       .  S
C802        H804   1.087       .  S
C805        C806   1.345       .  D
C805        H807   1.087       .  S
C806        H808   1.086       .  S
C809        C810   1.341       .  D
C809        H811   1.087       .  S
C810        H812   1.086       .  S
C813        C814   1.343       .  D
C813        H815   1.088       .  S
C814        H816   1.086       .  S
C817        C818   1.343       .  D
C817        H819   1.087       .  S
C818        H820   1.086       .  S
C821        C822   1.338       .  D
C821        H823   1.087       .  S
C822        H824   1.088       .  S
C825        C826   1.338       .  D
C825        H827   1.087       .  S
C826        H828   1.087       .  S
C829        C830   1.345       .  D
C829        H831   1.087       .  S
C830        H832   1.087       .  S
C833        C834   1.337       .  D
C833        H835   1.088       .  S
C834        H836   1.087       .  S
C837        C838   1.341       .  D
C837        H839   1.087       .  S
C838        H840   1.087       .  S
C841        C842   1.342       .  D
C841        H843   1.088       .  S
C842        H844   1.086       .  S
C845        C846   1.340       .  D
C845        H847   1.087       .  S
C846        H848   1.086       .  S
C849        C850   1.342       .  D
C849        H851   1.087       .  S
C850        H852   1.087       .  S
C853        C854   1.344       .  D
C853        H855   1.087       .  S
C854        H856   1.087       .  S
C857        C858   1.341       .  D
C857        H859   1.087       .  S
C858        H860   1.087       .  S
C861        C862   1.342       .  D
C861        H863   1.088       .  S
C862        H864   1.086       .  S
C865        C866   1.343       .  D
C865        H867   1.087       .  S
C866        H868   1.087       .  S
C869        C870   1.342       .  D
C869        H871   1.087       .  S
C870        H872   1.088       .  S
C873        C874   1.341       .  D
C873        H875   1.088       .  S
C874        H876   1.086       .  S
C877        C878   1.343       .  D
C877        H879   1.087       .  S
C878        H880   1.087       .  S
C881        C882   1.340       .  D
C881        H883   1.087       .  S
C882        H884   1.087       .  S
C885        C886   1.340       .  D
C885        H887   1.087       .  S
C886        H888   1.087       .  S
C889        C890   1.338       .  D
C889        H891   1.087       .  S
C890        H892   1.088       .  S
C893        C894   1.344       .  D
C893        H895   1.086       .  S
C894        H896   1.087       .  S
C897        C898   1.342       .  D
C897        H899   1.087       .  S
C898        H900   1.087       .  S
C901        C902   1.341       .  D
C901        H903   1.088       .  S
C902        H904   1.086       .  S
C905        C906   1.340       .  D
C905        H907   1.088       .  S
C906        H908   1.087       .  S
C909        C910   1.342       .  D
C909        H911   1.087       .  S
C910        H912   1.087       .  S
C913        C914   1.344       .  D
C913        H915   1.087       .  S
C914        H916   1.087       .  S
C917        C918   1.338       .  D
C917        H919   1.087       .  S
C918        H920   1.087       .  S
C921        C922   1.342       .  D
C921        H923   1.087       .  S
C922        H924   1.087       .  S
C925        C926   1.339       .  D
C925        H927   1.086       .  S
C926        H928   1.088       .  S
C929        C930   1.343       .  D
C929        H931   1.088       .  S
C930        H932   1.086       .  S
C933        C934   1.347       .  D
C933        H935   1.087       .  S
C934        H936   1.087       .  S
C937        C938   1.344       .  D
C937        H939   1.087       .  S
C938        H940   1.087       .  S
C941        C942   1.337       .  D
C941        H943   1.088       .  S
C942        H944   1.087       .  S
C945        C946   1.336       .  D
C945        H947   1.087       .  S
C946        H948   1.088       .  S
C949        C950   1.344       .  D
C949        H951   1.087       .  S
C950        H952   1.087       .  S
C953        C954   1.343       .  D
C953        H955   1.087       .  S
C954        H956   1.086       .  S
C957        C958   1.338       .  D
C957        H959   1.087       .  S
C958        H960   1.087       .  S
C961        C962   1.341       .  D
C961        H963   1.086       .  S
C962        H964   1.088       .  S
C965        C966   1.342       .  D
C965        H967   1.087       .  S
C966        H968   1.087       .  S
C969        C970   1.343       .  D
C969        H971   1.088       .  S
C970        H972   1.086       .  S
