geometry optimzed in LAMMPS
_audit_creation_date              2020-11-30 
_audit_creation_method            'lammps2cif' 
_symmetry_space_group_name_H-M    'P1' 
_symmetry_Int_Tables_number       1 
_symmetry_cell_setting            triclinic 
loop_ 
_symmetry_equiv_pos_as_xyz 
  x,y,z 
_cell_length_a                    48.61751565582664 
_cell_length_b                    48.743142571230024 
_cell_length_c                    48.638036422989025 
_cell_angle_alpha                 90.00888829757564 
_cell_angle_beta                  90.06064436880713 
_cell_angle_gamma                 90.14240927368826 
loop_ 
_atom_site_label 
_atom_site_type_symbol 
_atom_site_fract_x 
_atom_site_fract_y 
_atom_site_fract_z 
_atom_site_charge 
C1          C  0.15544845  0.15675994  0.48504308     0.00510
C2          C  0.15462467  0.15592007  0.51307320     0.00510
C3          C  0.15560683  0.45970635  0.18576709     0.00510
C4          C  0.15630437  0.48768423  0.18665129     0.00510
C5          C  0.45447543  0.16448403  0.19077124     0.00510
C6          C  0.48241553  0.16452231  0.18836098     0.00510
C7          C  0.15499548  0.79149901  0.48708023     0.00510
C8          C  0.15103851  0.79497413  0.51462974     0.00510
C9          C  0.78822344  0.15641427  0.48559662     0.00510
C10         C  0.78665105  0.15892263  0.51356087     0.00510
C11         C  0.78900998  0.79388213  0.48657089     0.00510
C12         C  0.78898661  0.79452240  0.51459541     0.00510
C13         C  0.45655460  0.14818185  0.82712793     0.00510
C14         C  0.48435868  0.15075313  0.82928694     0.00510
C15         C  0.15211795  0.45959627  0.81567381     0.00510
C16         C  0.15208482  0.48761150  0.81574214     0.00510
C17         C  0.45625042  0.78438005  0.18857734     0.00510
C18         C  0.48419233  0.78573093  0.18708903     0.00510
C19         C  0.78603084  0.48918832  0.18671770     0.00510
C20         C  0.78589107  0.46128220  0.18582310     0.00510
C21         C  0.77716923  0.46123388  0.80831707     0.00510
C22         C  0.77740894  0.48924115  0.80730520     0.00510
C23         C  0.45632648  0.79252380  0.81720814     0.00510
C24         C  0.48419318  0.79085559  0.81837526     0.00510
C25         C  0.56807065  0.72438282  0.86226921     0.03070
C26         C  0.58706664  0.72297434  0.84057118    -0.13080
C27         C  0.61367848  0.71273716  0.84479952     0.00570
C28         C  0.62095609  0.70351916  0.87125249    -0.11600
C29         C  0.60231017  0.70533132  0.89326047     0.03070
C30         C  0.57585996  0.71585349  0.88872179    -0.11020
H31         H  0.58133804  0.73096384  0.82057452     0.08660
H32         H  0.64163721  0.69625403  0.87521098     0.06190
H33         H  0.56165099  0.71791640  0.90573996     0.06040
C34         C  0.74077669  0.58197658  0.86707929     0.03070
C35         C  0.74231037  0.60323243  0.84748581    -0.13080
C36         C  0.73187802  0.62927772  0.85326166     0.00570
C37         C  0.72105170  0.63429302  0.87919549    -0.11600
C38         C  0.72150683  0.61434692  0.89998979     0.03070
C39         C  0.73107808  0.58780559  0.89375183    -0.11020
H40         H  0.74984085  0.59879603  0.82699303     0.08660
H41         H  0.71208462  0.65419815  0.88340285     0.06190
H42         H  0.73046709  0.57183006  0.90907740     0.06040
C43         C  0.83282072  0.57414243  0.74965978     0.03070
C44         C  0.81136466  0.59316382  0.74721268    -0.13080
C45         C  0.81604648  0.61937512  0.73644540     0.00570
C46         C  0.84263611  0.62617155  0.72743200    -0.11600
C47         C  0.86467244  0.60780708  0.73084563     0.03070
C48         C  0.85958828  0.58148762  0.74159522    -0.11020
H49         H  0.79102920  0.58762073  0.75450998     0.08660
H50         H  0.84657753  0.64629551  0.71881112     0.06190
H51         H  0.87630804  0.56702876  0.74396532     0.06040
C52         C  0.84178756  0.74833263  0.60733475     0.03070
C53         C  0.86787396  0.73721660  0.61218410    -0.13080
C54         C  0.87444876  0.72686071  0.63823801     0.00570
C55         C  0.85504070  0.72814245  0.65952418    -0.11600
C56         C  0.82884893  0.73927184  0.65503513     0.03070
C57         C  0.82247523  0.74964470  0.62878944    -0.11020
H58         H  0.88274530  0.73617402  0.59564889     0.08660
H59         H  0.86008439  0.71930738  0.67934821     0.06190
H60         H  0.80216795  0.75777970  0.62461610     0.06040
C61         C  0.69903116  0.87017379  0.63100869     0.03070
C62         C  0.70847239  0.86442809  0.60431489    -0.13080
C63         C  0.72092552  0.83904695  0.59853771     0.00570
C64         C  0.72284078  0.81946822  0.61973916    -0.11600
C65         C  0.71168797  0.82417556  0.64579431     0.03070
C66         C  0.70016081  0.84987922  0.65144234    -0.11020
H67         H  0.70586727  0.87963300  0.58840408     0.08660
H68         H  0.73316929  0.80018718  0.61584844     0.06190
H69         H  0.69239623  0.85438329  0.67182766     0.06040
C70         C  0.60924100  0.87834883  0.75271199     0.03070
C71         C  0.58284665  0.87096127  0.76198085    -0.13080
C72         C  0.57814946  0.84475957  0.77316886     0.00570
C73         C  0.60016547  0.82608933  0.77487855    -0.11600
C74         C  0.62618626  0.83266086  0.76423660     0.03070
C75         C  0.63038548  0.85876641  0.75316163    -0.11020
H76         H  0.56598827  0.88519645  0.75963590     0.08660
H77         H  0.59644779  0.80573900  0.78306908     0.06190
H78         H  0.65008899  0.86373025  0.74401541     0.06040
O79         O  0.74870639  0.70728201  0.70867094    -0.88400
C80         C  0.76730982  0.70943138  0.79019649     0.87630
Mg81       Mg  0.73938516  0.74395372  0.68631303     1.58150
O82         O  0.70051038  0.68537966  0.77472047    -0.88130
O83         O  0.72934538  0.66799658  0.71827075    -0.75460
C84         C  0.64756019  0.81124391  0.76110131     0.92680
O85         O  0.78083626  0.75464620  0.74225697    -0.75280
O86         O  0.66791346  0.81573847  0.74523646    -0.82780
Mg87       Mg  0.78566540  0.70862669  0.73335775     1.57960
C88         C  0.63492914  0.71550244  0.82300865     0.92600
O89         O  0.79813696  0.66364705  0.72642725    -0.81040
H90         H  0.67542114  0.65829723  0.75662601    -0.06390
C91         C  0.70499318  0.76604595  0.79780899     0.87540
O92         O  0.69292218  0.73680181  0.69099462    -0.75550
O93         O  0.76119831  0.69794309  0.76840281    -0.88320
O94         O  0.65759326  0.70264783  0.82566554    -0.81130
C95         C  0.72903712  0.65031664  0.83163157     0.92720
C96         C  0.79446784  0.64072465  0.73850227     0.92570
Mg97       Mg  0.65623320  0.74335825  0.76567880     1.57950
O98         O  0.64400921  0.78817299  0.77288938    -0.81050
O99         O  0.66116840  0.69738804  0.75676749    -0.75290
O100        O  0.74166390  0.64726316  0.80894740    -0.81130
O101        O  0.81096721  0.71962059  0.69600207    -0.82840
O102        O  0.70111384  0.80571078  0.68990745    -0.81160
C103        C  0.67892055  0.67933120  0.76278311     0.87010
O104        O  0.68076888  0.75432990  0.73050328    -0.88300
O105        O  0.69316502  0.74492870  0.79025284    -0.88410
O106        O  0.71242833  0.78426194  0.78075915    -0.75460
Mg107      Mg  0.73618923  0.66134531  0.76441340     1.57970
O108        O  0.71287843  0.67032886  0.83588202    -0.82840
H109        H  0.73160237  0.68366821  0.67970089    -0.06560
O110        O  0.74156893  0.76694579  0.72434811    -0.88110
H111        H  0.76676862  0.79380672  0.74261840    -0.06390
H112        H  0.65349454  0.73775101  0.70457306    -0.06570
C113        C  0.76316468  0.77282260  0.73635468     0.86980
C114        C  0.73672191  0.68621655  0.70118399     0.87570
C115        C  0.67471992  0.74310202  0.70855478     0.87620
H116        H  0.70996446  0.76862441  0.81932404    -0.06550
O117        O  0.74916494  0.71599532  0.80770255    -0.75570
Mg118      Mg  0.70582368  0.79100045  0.73461721     1.58000
H119        H  0.78854068  0.71486577  0.79403003    -0.06560
C120        C  0.80723709  0.73649030  0.67638945     0.92600
O121        O  0.73002643  0.78263849  0.66309349    -0.82800
C122        C  0.71413862  0.80287265  0.66736397     0.92660
O123        O  0.77388184  0.63642392  0.75406190    -0.82790
Mg124      Mg  0.70284178  0.70857181  0.81262768     1.58180
O125        O  0.78475555  0.74962749  0.67363206    -0.81120
O126        O  0.63085412  0.73217138  0.80326303    -0.82810
C127        C  0.66408000  0.66947906  0.98527497     0.00510
C128        C  0.66554220  0.66917285  0.01329602     0.00510
C129        C  0.64732138  0.96198612  0.68089535     0.00510
C130        C  0.64620513  0.98987094  0.68009196     0.00510
C131        C  0.95791148  0.65749018  0.68101048     0.00510
C132        C  0.98589651  0.65610289  0.68041112     0.00510
C133        C  0.74082721  0.36819230  0.86794012     0.03070
C134        C  0.74199665  0.34657323  0.84882049    -0.13080
C135        C  0.73198386  0.32034546  0.85563527     0.00570
C136        C  0.72153028  0.31594287  0.88205557    -0.11600
C137        C  0.72050991  0.33727194  0.90137216     0.03070
C138        C  0.73001600  0.36351425  0.89426206    -0.11020
H139        H  0.74963262  0.35061877  0.82828392     0.08660
H140        H  0.71335480  0.29595909  0.88753268     0.06190
H141        H  0.72896218  0.38013578  0.90900229     0.06040
C142        C  0.56660887  0.22572086  0.86260550     0.03070
C143        C  0.58558647  0.22671053  0.84068749    -0.13080
C144        C  0.61189728  0.23812545  0.84416724     0.00570
C145        C  0.61918577  0.24838694  0.87012635    -0.11600
C146        C  0.60158780  0.24527143  0.89283536     0.03070
C147        C  0.57495847  0.23478244  0.88883289    -0.11020
H148        H  0.58009960  0.21768205  0.82107625     0.08660
H149        H  0.63965947  0.25660787  0.87343034     0.06190
H150        H  0.56125281  0.23266362  0.90624888     0.06040
C151        C  0.83043310  0.37680428  0.74788117     0.03070
C152        C  0.81134352  0.35519540  0.75009698    -0.13080
C153        C  0.81669574  0.32925341  0.73934561     0.00570
C154        C  0.84258732  0.32410733  0.72802547    -0.11600
C155        C  0.86275053  0.34479047  0.72717939     0.03070
C156        C  0.85641294  0.37143098  0.73637086    -0.11020
H157        H  0.79176567  0.35881833  0.76007447     0.08660
H158        H  0.84749554  0.30374174  0.72055813     0.06190
H159        H  0.87157269  0.38753742  0.73457288     0.06040
C160        C  0.84084482  0.20119836  0.60760317     0.03070
C161        C  0.86729286  0.21155882  0.61263261    -0.13080
C162        C  0.87444522  0.22094457  0.63896128     0.00570
C163        C  0.85472627  0.22050722  0.66007641    -0.11600
C164        C  0.82815956  0.21029488  0.65542177     0.03070
C165        C  0.82151714  0.20032148  0.62909311    -0.11020
H166        H  0.88196621  0.21309814  0.59595736     0.08660
H167        H  0.85989235  0.22917447  0.67994693     0.06190
H168        H  0.80086862  0.19305317  0.62479874     0.06040
C169        C  0.72259281  0.11137973  0.59913398     0.03070
C170        C  0.72001398  0.13327947  0.61762494    -0.13080
C171        C  0.70817995  0.12942922  0.64352917     0.00570
C172        C  0.69804224  0.10334598  0.65040982    -0.11600
C173        C  0.70166845  0.08085057  0.63259844     0.03070
C174        C  0.71352983  0.08509712  0.60662947    -0.11020
H175        H  0.72823375  0.15321259  0.61203711     0.08660
H176        H  0.68878178  0.10004559  0.67039374     0.06190
H177        H  0.71617109  0.06804699  0.59260183     0.06040
C178        C  0.57693033  0.10697632  0.77200688     0.03070
C179        C  0.58126545  0.08073715  0.76101313    -0.13080
C180        C  0.60724636  0.07365816  0.75076321     0.00570
C181        C  0.62863546  0.09297764  0.75114806    -0.11600
C182        C  0.62453507  0.11921554  0.76212278     0.03070
C183        C  0.59869502  0.12584943  0.77305524    -0.11020
H184        H  0.56447019  0.06611312  0.76005351     0.08660
H185        H  0.64820659  0.08777015  0.74186723     0.06190
H186        H  0.59507056  0.14606347  0.78158990     0.06040
O187        O  0.73975813  0.18412695  0.72270097    -0.88400
C188        C  0.73733829  0.26515772  0.70288549     0.87630
Mg189      Mg  0.70361436  0.16101517  0.73249082     1.58150
O190        O  0.76064078  0.25026435  0.76997150    -0.88130
O191        O  0.77923859  0.19398461  0.74161258    -0.75460
C192        C  0.63331738  0.23522414  0.82254776     0.92680
O193        O  0.69198953  0.21663560  0.69073600    -0.75280
O194        O  0.62926461  0.21869839  0.80267451    -0.82780
Mg195      Mg  0.73815797  0.20833320  0.68556398     1.57960
C196        C  0.72914700  0.29870036  0.83441730     0.92600
O197        O  0.78331045  0.20177120  0.67303645    -0.81040
H198        H  0.78745886  0.23276724  0.79569368    -0.06390
C199        C  0.67908815  0.27190004  0.76460484     0.87540
O200        O  0.71081349  0.16656692  0.77879186    -0.75550
O201        O  0.74884254  0.24358867  0.70944990    -0.88320
O202        O  0.74252101  0.30099859  0.81203526    -0.81130
C203        C  0.79584097  0.30731868  0.74201112     0.92720
C204        C  0.80648545  0.21353660  0.67666727     0.92570
Mg205      Mg  0.70172042  0.24119381  0.81389513     1.57950
O206        O  0.65620808  0.24773470  0.82564910    -0.81050
O207        O  0.74805642  0.23293685  0.80943831    -0.75290
O208        O  0.79939622  0.28465169  0.72952029    -0.81130
O209        O  0.72723780  0.17084800  0.66073509    -0.82840
O210        O  0.64251416  0.16352519  0.77116190    -0.81160
C211        C  0.76640301  0.23871132  0.79180719     0.87010
O212        O  0.69174404  0.20549014  0.79029693    -0.88300
O213        O  0.70039720  0.26486791  0.77644104    -0.88410
O214        O  0.66087167  0.25450441  0.75780645    -0.75460
Mg215      Mg  0.78542555  0.24002903  0.73465034     1.57970
O216        O  0.77527650  0.31143198  0.75757066    -0.82840
H217        H  0.76374938  0.15536911  0.73942161    -0.06560
O218        O  0.67966720  0.19831591  0.72986134    -0.88110
H219        H  0.65268185  0.21632862  0.70469283    -0.06390
H220        H  0.70917462  0.18070968  0.81798015    -0.06570
C221        C  0.67376791  0.21032095  0.70830326     0.86980
C222        C  0.76102637  0.17679559  0.73439512     0.87570
C223        C  0.70374004  0.18411462  0.79669784     0.87620
H224        H  0.67624690  0.29322784  0.75923696    -0.06550
O225        O  0.73016346  0.28268383  0.72072886    -0.75570
Mg226      Mg  0.65511388  0.20834277  0.76522786     1.58000
H227        H  0.73234960  0.26871595  0.68152001    -0.06560
C228        C  0.71058016  0.15109019  0.66475148     0.92600
O229        O  0.66576915  0.13643976  0.74265667    -0.82800
C230        C  0.64579205  0.14066804  0.75893799     0.92660
O231        O  0.81088576  0.22940288  0.69703522    -0.82790
Mg232      Mg  0.73693208  0.28774201  0.76704795     1.58180
O233        O  0.69768374  0.14821450  0.68737212    -0.81120
O234        O  0.71212205  0.27922639  0.83839483    -0.82810
C235        C  0.33039509  0.72417182  0.90145288     0.03070
C236        C  0.35663457  0.73578080  0.89673855    -0.13080
C237        C  0.36301098  0.74734569  0.87095275     0.00570
C238        C  0.34233011  0.74951438  0.85088324    -0.11600
C239        C  0.31656666  0.73757188  0.85490065     0.03070
C240        C  0.31119759  0.72413854  0.87964981    -0.11020
H241        H  0.37212441  0.73554739  0.91251968     0.08660
H242        H  0.34710002  0.75873290  0.83115675     0.06190
H243        H  0.29162829  0.71371150  0.88197780     0.06040
C244        C  0.24117793  0.60251939  0.89633422     0.03070
C245        C  0.22820874  0.57752036  0.89034092    -0.13080
C246        C  0.21744385  0.57286536  0.86398677     0.00570
C247        C  0.21984722  0.59333758  0.84376714    -0.11600
C248        C  0.23338695  0.61810655  0.84936772     0.03070
C249        C  0.24429945  0.62246487  0.87570647    -0.11020
H250        H  0.22638284  0.56197404  0.90613737     0.08660
H251        H  0.21088997  0.59000232  0.82361062     0.06190
H252        H  0.25382128  0.64198226  0.88069174     0.06040
C253        C  0.37189327  0.83336484  0.74841800     0.03070
C254        C  0.35257252  0.81196440  0.74593074    -0.13080
C255        C  0.32733335  0.81627792  0.73263972     0.00570
C256        C  0.32164815  0.84236734  0.72183621    -0.11600
C257        C  0.33966420  0.86457048  0.72637047     0.03070
C258        C  0.36512032  0.85981108  0.73914459    -0.11020
H259        H  0.35705588  0.79207232  0.75481494     0.08660
H260        H  0.30217506  0.84596284  0.71160001     0.06190
H261        H  0.37926111  0.87669392  0.74253359     0.06040
C262        C  0.19499369  0.84534704  0.60816945     0.03070
C263        C  0.19310095  0.82409703  0.62764626    -0.13080
C264        C  0.20532533  0.82670846  0.65372057     0.00570
C265        C  0.21809791  0.85169340  0.66068637    -0.11600
C266        C  0.21858453  0.87375516  0.64199313     0.03070
C267        C  0.20747806  0.87022302  0.61553039    -0.11020
H268        H  0.18342791  0.80497423  0.62190937     0.08660
H269        H  0.22829805  0.85378870  0.68040021     0.06190
H270        H  0.20917738  0.88654015  0.60049284     0.06040
C271        C  0.09877100  0.58066574  0.77314695     0.03070
C272        C  0.07334291  0.58694163  0.76112730    -0.13080
C273        C  0.06774261  0.61391221  0.75268241     0.00570
C274        C  0.08791539  0.63437860  0.75583072    -0.11600
C275        C  0.11322420  0.62833984  0.76823953     0.03070
C276        C  0.11818277  0.60160116  0.77753052    -0.11020
H277        H  0.05853602  0.57075245  0.75720415     0.08660
H278        H  0.08432809  0.65470188  0.74752632     0.06190
H279        H  0.13811682  0.59646458  0.78610612     0.06040
C280        C  0.11465296  0.72067545  0.60128085     0.03070
C281        C  0.08645868  0.71989461  0.60911178    -0.13080
C282        C  0.07847942  0.70766072  0.63418969     0.00570
C283        C  0.09888349  0.69850668  0.65239460    -0.11600
C284        C  0.12651027  0.70022059  0.64526443     0.03070
C285        C  0.13355285  0.70727117  0.61854090    -0.11020
H286        H  0.07070373  0.72921248  0.59655526     0.08660
H287        H  0.09335994  0.69118998  0.67269802     0.06190
H288        H  0.15436713  0.70359775  0.61234200     0.06040
O289        O  0.17170353  0.71914033  0.73402509    -0.88400
C290        C  0.22496562  0.65627488  0.74950943     0.87630
Mg291      Mg  0.17986363  0.75050961  0.70395835     1.58150
O292        O  0.22203617  0.70722261  0.80055663    -0.88130
O293        O  0.16133684  0.71443183  0.77754588    -0.75460
C294        C  0.30521297  0.79528876  0.73357213     0.92680
O295        O  0.21337420  0.69046155  0.69240813    -0.75280
O296        O  0.28766279  0.79418749  0.71419545    -0.82780
Mg297      Mg  0.17723466  0.67765171  0.72050848     1.57960
C298        C  0.29666434  0.73612850  0.83203103     0.92600
O299        O  0.13993534  0.66122976  0.74464192    -0.81040
H300        H  0.20165976  0.72858239  0.82909087    -0.06390
C301        C  0.28472500  0.71595258  0.74456859     0.87540
O302        O  0.19406343  0.78002678  0.73843553    -0.75550
O303        O  0.20488401  0.67108026  0.75395694    -0.88320
O304        O  0.28120118  0.71509663  0.83030093    -0.81130
C305        C  0.23292285  0.64057413  0.82898996     0.92720
C306        C  0.13631847  0.64796646  0.76689282     0.92570
Mg307      Mg  0.26603237  0.76301836  0.77953970     1.57950
O308        O  0.30314619  0.78010023  0.75482370    -0.81050
O309        O  0.23043192  0.75065471  0.80836709    -0.75290
O310        O  0.21123745  0.64365754  0.81462380    -0.81130
O311        O  0.14780066  0.68369528  0.68557049    -0.82840
O312        O  0.22907812  0.79954547  0.68667763    -0.81160
C313        C  0.21745617  0.72856493  0.81346552     0.87010
O314        O  0.23725154  0.77030360  0.74654270    -0.88300
O315        O  0.27078639  0.72167571  0.76502000    -0.88410
O316        O  0.28124428  0.72821920  0.72173242    -0.75460
Mg317      Mg  0.18841522  0.67933077  0.79396306     1.57970
O318        O  0.25326859  0.65694562  0.82715441    -0.82840
H319        H  0.14261790  0.74171168  0.75217182    -0.06560
O320        O  0.22056429  0.73444552  0.69890019    -0.88110
H321        H  0.24218672  0.71253511  0.67173154    -0.06390
H322        H  0.21757976  0.80034552  0.76641885    -0.06570
C323        C  0.22596000  0.71272527  0.68690567     0.86980
C324        C  0.15778090  0.72565558  0.75423574     0.87570
C325        C  0.21659020  0.78432524  0.75107444     0.87620
H326        H  0.30001825  0.69995522  0.74604198    -0.06550
O327        O  0.24784020  0.66039678  0.76142002    -0.75570
Mg328      Mg  0.25334132  0.76342128  0.70618121     1.58000
H329        H  0.22322439  0.63990555  0.73460541    -0.06560
C330        C  0.14713576  0.70211826  0.66723386     0.92600
O331        O  0.18807389  0.78472921  0.67258058    -0.82800
C332        C  0.20734070  0.80251322  0.67225733     0.92660
O333        O  0.15316293  0.64954723  0.78683532    -0.82790
Mg334      Mg  0.26235829  0.69003844  0.79520018     1.58180
O335        O  0.16170106  0.72392843  0.66870312    -0.81120
O336        O  0.29630713  0.75504526  0.81404875    -0.82810
C337        C  0.29095200  0.95936737  0.67951680     0.00510
C338        C  0.29035412  0.98756986  0.67954165     0.00510
C339        C  0.36033550  0.19648279  0.87276414     0.03070
C340        C  0.33984727  0.19660423  0.85229530    -0.13080
C341        C  0.31394798  0.20841974  0.85735315     0.00570
C342        C  0.30854607  0.21904975  0.88366447    -0.11600
C343        C  0.32878469  0.21882633  0.90422712     0.03070
C344        C  0.35474860  0.20772200  0.89868173    -0.11020
H345        H  0.34451898  0.18850865  0.83214153     0.08660
H346        H  0.28902184  0.22886877  0.88790639     0.06190
H347        H  0.37074959  0.20851436  0.91419111     0.06040
C348        C  0.22127618  0.37623533  0.85923229     0.03070
C349        C  0.22184147  0.35614551  0.83859818    -0.13080
C350        C  0.23313825  0.33026660  0.84340653     0.00570
C351        C  0.24385419  0.32450025  0.86952580    -0.11600
C352        C  0.24122596  0.34335570  0.89138878     0.03070
C353        C  0.22977073  0.36934253  0.88601585    -0.11020
H354        H  0.21246527  0.36049895  0.81885797     0.08660
H355        H  0.25254501  0.30442868  0.87346590     0.06190
H356        H  0.22645524  0.38377496  0.90252086     0.06040
C357        C  0.19901792  0.10228547  0.60639101     0.03070
C358        C  0.20768848  0.07542169  0.61244866    -0.13080
C359        C  0.21670338  0.06866159  0.63918168     0.00570
C360        C  0.21740160  0.08930588  0.65936550    -0.11600
C361        C  0.20749361  0.11574920  0.65405845     0.03070
C362        C  0.19801243  0.12195302  0.62750386    -0.11020
H363        H  0.20824900  0.06017591  0.59625495     0.08660
H364        H  0.22679410  0.08501986  0.67909411     0.06190
H365        H  0.19111222  0.14254589  0.62275025     0.06040
C366        C  0.37207880  0.11661441  0.74914268     0.03070
C367        C  0.36510001  0.08887357  0.74270089    -0.13080
C368        C  0.33998716  0.08261166  0.72938645     0.00570
C369        C  0.32027167  0.10327600  0.72622287    -0.11600
C370        C  0.32699313  0.13049147  0.73227251     0.03070
C371        C  0.35403214  0.13686409  0.73921359    -0.11020
H372        H  0.37874703  0.07206057  0.74717605     0.08660
H373        H  0.29982087  0.09804641  0.71900052     0.06190
H374        H  0.35989737  0.15805450  0.73814187     0.06040
C375        C  0.07516364  0.24168521  0.63060585     0.03070
C376        C  0.08026280  0.23112681  0.60423318    -0.13080
C377        C  0.10619963  0.22013754  0.59802322     0.00570
C378        C  0.12691867  0.22048197  0.61817325    -0.11600
C379        C  0.12241858  0.23199260  0.64411487     0.03070
C380        C  0.09637332  0.24261664  0.65018882    -0.11020
H381        H  0.06420490  0.23157338  0.58882516     0.08660
H382        H  0.14673918  0.21146101  0.61353471     0.06190
H383        H  0.09223990  0.25105235  0.67038549     0.06040
C384        C  0.06591040  0.33325614  0.75279574     0.03070
C385        C  0.07251641  0.35935424  0.76318730    -0.13080
C386        C  0.09899271  0.36471095  0.77345899     0.00570
C387        C  0.11874224  0.34362733  0.77368766    -0.11600
C388        C  0.11267370  0.31762778  0.76273003     0.03070
C389        C  0.08638207  0.31292941  0.75197761    -0.11020
H390        H  0.05747191  0.37567001  0.76236982     0.08660
H391        H  0.13929599  0.34805231  0.78114013     0.06190
H392        H  0.08195826  0.29347827  0.74213760     0.06040
O393        O  0.20046500  0.25027865  0.78977855    -0.88400
C394        C  0.20296803  0.26947955  0.70780817     0.87630
Mg395      Mg  0.23628007  0.24021904  0.81351568     1.58150
O396        O  0.17893902  0.20267724  0.72276674    -0.88130
O397        O  0.16103981  0.23149823  0.77916499    -0.75460
C398        C  0.30529599  0.15121722  0.73637520     0.92680
O399        O  0.24871316  0.28162304  0.75719641    -0.75280
O400        O  0.30954818  0.17058790  0.75348507    -0.82780
Mg401      Mg  0.20260335  0.28706141  0.76504605     1.57960
C402        C  0.21038336  0.13762343  0.67510889     0.92600
O403        O  0.15755768  0.30011210  0.77134974    -0.81040
H404        H  0.15182962  0.17755549  0.74073213    -0.06390
C405        C  0.26007895  0.20896561  0.70199982     0.87540
O406        O  0.22885982  0.19411401  0.80760025    -0.75550
O407        O  0.19188630  0.26292374  0.72965424    -0.88320
O408        O  0.19753668  0.16015904  0.67194936    -0.81130
C409        C  0.14399995  0.23019676  0.66548644     0.92720
C410        C  0.13447814  0.29659087  0.75937880     0.92570
Mg411      Mg  0.23732411  0.15916231  0.73255873     1.57950
O412        O  0.28212586  0.14768544  0.72476624    -0.81050
O413        O  0.19113758  0.16366505  0.74112985    -0.75290
O414        O  0.14100860  0.24328857  0.68797926    -0.81130
O415        O  0.21378530  0.31212071  0.80242919    -0.82840
O416        O  0.29774571  0.20111548  0.81139623    -0.81160
C417        C  0.17294427  0.18116999  0.73477313     0.87010
O418        O  0.24760766  0.18296820  0.76832646    -0.88300
O419        O  0.23897245  0.19633379  0.70840046    -0.88410
O420        O  0.27792508  0.21586858  0.71979401    -0.75460
Mg421      Mg  0.15491751  0.23834786  0.73295084     1.57970
O422        O  0.16432863  0.21439025  0.66133289    -0.82840
H423        H  0.17594946  0.23338926  0.81808231    -0.06560
O424        O  0.26075938  0.24302355  0.77661913    -0.88110
H425        H  0.28802451  0.26789440  0.75858086    -0.06390
H426        H  0.23023547  0.15514959  0.79303360    -0.06570
C427        C  0.26683891  0.26435260  0.76432572     0.86980
C428        C  0.17903113  0.23856362  0.79669277     0.87570
C429        C  0.23573209  0.17640471  0.78978166     0.87620
H430        H  0.26300393  0.21505323  0.68083128    -0.06550
O431        O  0.20945764  0.25166908  0.68997399    -0.75570
Mg432      Mg  0.28451678  0.20768596  0.76583769     1.58000
H433        H  0.20799498  0.29078468  0.70415290    -0.06560
C434        C  0.23003032  0.30824204  0.82259331     0.92600
O435        O  0.27389325  0.22913470  0.83859642    -0.82800
C436        C  0.29386698  0.21273293  0.83464273     0.92660
O437        O  0.13011446  0.27627621  0.74345225    -0.82790
Mg438      Mg  0.20270567  0.20531432  0.68513993     1.58180
O439        O  0.24217560  0.28537534  0.82635854    -0.81120
O440        O  0.22682650  0.13391810  0.69508951    -0.82810
C441        C  0.95599733  0.29370793  0.67796077     0.00510
C442        C  0.98381790  0.29674435  0.67829389     0.00510
C443        C  0.28738485  0.29086754  0.98581722     0.00510
C444        C  0.28808979  0.29519265  0.01376371     0.00510
C445        C  0.29087657  0.98671403  0.32257950     0.00510
C446        C  0.29459953  0.95902911  0.32471219     0.00510
C447        C  0.21881469  0.37485107  0.13706068     0.03070
C448        C  0.21967593  0.35358875  0.15643564    -0.13080
C449        C  0.22908111  0.32731234  0.14926035     0.00570
C450        C  0.23811613  0.32291556  0.12209774    -0.11600
C451        C  0.23746687  0.34435415  0.10253508     0.03070
C452        C  0.22752032  0.37016185  0.11010841    -0.11020
H453        H  0.21191001  0.35743369  0.17695713     0.08660
H454        H  0.24476997  0.30271198  0.11581973     0.06190
H455        H  0.22602190  0.38639055  0.09495801     0.06040
C456        C  0.35964354  0.19695413  0.12917930     0.03070
C457        C  0.35593563  0.21228046  0.10495785    -0.13080
C458        C  0.32932991  0.22024952  0.09705673     0.00570
C459        C  0.30664744  0.21109342  0.11249253    -0.11600
C460        C  0.31046935  0.20036935  0.13879014     0.03070
C461        C  0.33698119  0.19171066  0.14638573    -0.11020
H462        H  0.37366121  0.21922416  0.09339513     0.08660
H463        H  0.28609812  0.21694368  0.10616232     0.06190
H464        H  0.34050371  0.18296415  0.16656833     0.06040
C465        C  0.37118662  0.11161752  0.25171599     0.03070
C466        C  0.36503356  0.08543222  0.26198244    -0.13080
C467        C  0.33824007  0.07935133  0.27081841     0.00570
C468        C  0.31816003  0.10006516  0.27106159    -0.11600
C469        C  0.32393126  0.12619716  0.26054558     0.03070
C470        C  0.35048735  0.13170470  0.25086604    -0.11020
H471        H  0.38076837  0.06979148  0.26279216     0.08660
H472        H  0.29759468  0.09525991  0.27820116     0.06190
H473        H  0.35510850  0.15166607  0.24216750     0.06040
C474        C  0.19426748  0.10140746  0.39021739     0.03070
C475        C  0.19242685  0.12027790  0.36831612    -0.13080
C476        C  0.20260310  0.11380369  0.34205923     0.00570
C477        C  0.21319156  0.08743411  0.33749323    -0.11600
C478        C  0.21504739  0.06834869  0.35899306     0.03070
C479        C  0.20550682  0.07536629  0.38530686    -0.11020
H480        H  0.18484059  0.14077333  0.37236931     0.08660
H481        H  0.22200675  0.08231958  0.31768811     0.06190
H482        H  0.20872184  0.06130873  0.40220870     0.06040
C483        C  0.07845458  0.24588133  0.36963018     0.03070
C484        C  0.08410657  0.23448094  0.39557859    -0.13080
C485        C  0.11084470  0.22580601  0.40207774     0.00570
C486        C  0.13138024  0.22661899  0.38186388    -0.11600
C487        C  0.12593614  0.23702986  0.35558808     0.03070
C488        C  0.09972899  0.24762445  0.35004269    -0.11020
H489        H  0.06777287  0.23144407  0.41034353     0.08660
H490        H  0.15134800  0.21782592  0.38634173     0.06190
H491        H  0.09528321  0.25574328  0.32978185     0.06040
C492        C  0.06646549  0.33492261  0.24745348     0.03070
C493        C  0.08488586  0.31291913  0.24501328    -0.13080
C494        C  0.11117025  0.31680738  0.23370663     0.00570
C495        C  0.11825949  0.34298218  0.22370695    -0.11600
C496        C  0.10011812  0.36533015  0.22637143     0.03070
C497        C  0.07430841  0.36116287  0.23857517    -0.11020
H498        H  0.07924010  0.29314145  0.25352843     0.08660
H499        H  0.13866670  0.34655185  0.21548445     0.06190
H500        H  0.06090223  0.37843681  0.24247280     0.06040
O501        O  0.23713010  0.19315947  0.28702648    -0.88400
C502        C  0.23066463  0.17256224  0.20592866     0.87630
Mg503      Mg  0.20209338  0.20411759  0.31110261     1.58150
O504        O  0.25722250  0.23892964  0.21679497    -0.88130
O505        O  0.27559544  0.21264146  0.27401498    -0.75460
C506        C  0.13256568  0.29520577  0.23655658     0.92680
O507        O  0.18717866  0.16210345  0.25629916    -0.75280
O508        O  0.12864036  0.27568002  0.25351947    -0.82780
Mg509      Mg  0.23346258  0.15591135  0.26312742     1.57960
C510        C  0.22626394  0.30440342  0.16942988     0.92600
O511        O  0.27862553  0.14280192  0.26867218    -0.81040
H512        H  0.28577940  0.26380256  0.23280663    -0.06390
C513        C  0.17512434  0.23520337  0.19932242     0.87540
O514        O  0.21044010  0.25010033  0.30431109    -0.75550
O515        O  0.24310946  0.17925481  0.22705122    -0.88320
O516        O  0.23816984  0.28136147  0.16521123    -0.81130
C517        C  0.28906334  0.20517694  0.16002743     0.92720
C518        C  0.30162792  0.14648519  0.25664533     0.92570
Mg519      Mg  0.20053647  0.28433609  0.22862189     1.57950
O520        O  0.15519850  0.29783070  0.22352742    -0.81050
O521        O  0.24686359  0.27852476  0.23504024    -0.75290
O522        O  0.29205848  0.19403655  0.18348826    -0.81130
O523        O  0.22274948  0.13122926  0.30105503    -0.82840
O524        O  0.14218189  0.24489792  0.31000221    -0.81160
C525        C  0.26430272  0.26055054  0.22799939     0.87010
O526        O  0.19109880  0.26132486  0.26525836    -0.88300
O527        O  0.19694816  0.24718684  0.20450322    -0.88410
O528        O  0.15792710  0.22922386  0.21804419    -0.75460
Mg529      Mg  0.28047851  0.20321544  0.22815659     1.57970
O530        O  0.26990568  0.22248395  0.15528351    -0.82840
H531        H  0.26222837  0.21215190  0.31348387    -0.06560
O532        O  0.17685632  0.20173585  0.27453437    -0.88110
H533        H  0.14836266  0.17719470  0.25790486    -0.06390
H534        H  0.20997544  0.28890217  0.28919383    -0.06570
C535        C  0.16978418  0.18024562  0.26306455     0.86980
C536        C  0.25851966  0.20578692  0.29250849     0.87570
C537        C  0.20374935  0.26778285  0.28634608     0.87620
H538        H  0.17091844  0.22894622  0.17841195    -0.06550
O539        O  0.22405633  0.19002888  0.18774613    -0.75570
Mg540      Mg  0.15344445  0.23772551  0.26434834     1.58000
H541        H  0.22449089  0.15140772  0.20326164    -0.06560
C542        C  0.20653934  0.13568501  0.32109972     0.92600
O543        O  0.16551098  0.21598693  0.33668566    -0.82800
C544        C  0.14599867  0.23292993  0.33303471     0.92660
O545        O  0.30551310  0.16627920  0.24008605    -0.82790
Mg546      Mg  0.23226682  0.23580589  0.18011842     1.58180
O547        O  0.19514246  0.15899966  0.32460303    -0.81120
O548        O  0.21083685  0.30826910  0.19022808    -0.82810
C549        C  0.95716343  0.29510823  0.32276131     0.00510
C550        C  0.98500653  0.29600719  0.32052370     0.00510
C551        C  0.65902053  0.28630445  0.98611987     0.00510
C552        C  0.66036952  0.28429257  0.01408065     0.00510
C553        C  0.83234270  0.37503062  0.24971810     0.03070
C554        C  0.85868104  0.36796072  0.25930536    -0.13080
C555        C  0.86349514  0.34161534  0.27007664     0.00570
C556        C  0.84129259  0.32334759  0.27330600    -0.11600
C557        C  0.81507518  0.32993230  0.26334962     0.03070
C558        C  0.81095290  0.35566812  0.25144819    -0.11020
H559        H  0.87535648  0.38262096  0.25825622     0.08660
H560        H  0.84492799  0.30331117  0.28222883     0.06190
H561        H  0.79096413  0.36061399  0.24291577     0.06040
C562        C  0.84058286  0.20347440  0.39259881     0.03070
C563        C  0.86686447  0.21440137  0.38785679    -0.13080
C564        C  0.87423026  0.22337825  0.36142980     0.00570
C565        C  0.85492909  0.22187448  0.33995818    -0.11600
C566        C  0.82872491  0.21055891  0.34424647     0.03070
C567        C  0.82201936  0.20073885  0.37057472    -0.11020
H568        H  0.88119053  0.21669191  0.40478822     0.08660
H569        H  0.86003905  0.23064002  0.32012794     0.06190
H570        H  0.80171457  0.19238133  0.37446813     0.06040
C571        C  0.56880429  0.22252231  0.13714833     0.03070
C572        C  0.57542753  0.23279029  0.11101719    -0.13080
C573        C  0.60204831  0.24265959  0.10586932     0.00570
C574        C  0.62163829  0.24335297  0.12713922    -0.11600
C575        C  0.61514947  0.23331914  0.15340850     0.03070
C576        C  0.58893749  0.22246721  0.15791636    -0.11020
H577        H  0.56007252  0.23351208  0.09492594     0.08660
H578        H  0.64214049  0.25102761  0.12288133     0.06190
H579        H  0.58397777  0.21394609  0.17790075     0.06040
C580        C  0.73747400  0.36986949  0.13326580     0.03070
C581        C  0.73801228  0.34902268  0.15326263    -0.13080
C582        C  0.72847426  0.32257645  0.14705119     0.00570
C583        C  0.71821285  0.31743282  0.12074422    -0.11600
C584        C  0.71923333  0.33735128  0.09984643     0.03070
C585        C  0.72923097  0.36370564  0.10622076    -0.11020
H586        H  0.74519442  0.35372491  0.17383969     0.08660
H587        H  0.70956320  0.29741030  0.11626757     0.06190
H588        H  0.73071962  0.37931627  0.09052301     0.06040
C589        C  0.57632922  0.10704190  0.22864809     0.03070
C590        C  0.59904756  0.12476110  0.22637552    -0.13080
C591        C  0.62507820  0.11693240  0.23615649     0.00570
C592        C  0.62815489  0.09085054  0.24770219    -0.11600
C593        C  0.60590912  0.07241071  0.24930987     0.03070
C594        C  0.58005978  0.08042969  0.23903496    -0.11020
H595        H  0.59592707  0.14529681  0.21843088     0.08660
H596        H  0.64782159  0.08516105  0.25650326     0.06190
H597        H  0.56274510  0.06650240  0.23978312     0.06040
C598        C  0.71829312  0.11243060  0.40247351     0.03070
C599        C  0.70741072  0.08624528  0.39705620    -0.13080
C600        C  0.69833228  0.07962540  0.37041889     0.00570
C601        C  0.69916296  0.09956760  0.34952198    -0.11600
C602        C  0.71038423  0.12562148  0.35464682     0.03070
C603        C  0.72058998  0.13138940  0.38088002    -0.11020
H604        H  0.70621915  0.07107415  0.41328578     0.08660
H605        H  0.69173961  0.09442256  0.32913979     0.06190
H606        H  0.73056957  0.15092799  0.38463521     0.06040
O607        O  0.69997837  0.26374994  0.22449562    -0.88400
C608        C  0.70617834  0.18279865  0.20166216     0.87630
Mg609      Mg  0.73516887  0.28820253  0.23532226     1.58150
O610        O  0.68109602  0.19418602  0.26873292    -0.88130
O611        O  0.66090549  0.25068163  0.24226608    -0.75460
C612        C  0.80712382  0.21296100  0.32278466     0.92680
O613        O  0.74973518  0.23479486  0.19102948    -0.75280
O614        O  0.81071613  0.22977502  0.30309862    -0.82780
Mg615      Mg  0.70330004  0.24080563  0.18642350     1.57960
C616        C  0.71352741  0.14629481  0.33255487     0.92600
O617        O  0.65839415  0.24531888  0.17287374    -0.81040
H618        H  0.65342042  0.21037763  0.29434990    -0.06390
C619        C  0.76300740  0.17633310  0.26273312     0.87540
O620        O  0.72863462  0.28072135  0.28136809    -0.75550
O621        O  0.69446983  0.20398249  0.20905317    -0.88320
O622        O  0.70072355  0.14313568  0.30989514    -0.81130
C623        C  0.64758018  0.13739107  0.23840765     0.92720
C624        C  0.63630410  0.23147384  0.17525938     0.92570
Mg625      Mg  0.73921123  0.20493253  0.31309996     1.57950
O626        O  0.78465631  0.19971228  0.32568655    -0.81050
O627        O  0.69271977  0.21174486  0.30838734    -0.75290
O628        O  0.64538581  0.15986080  0.22527459    -0.81130
O629        O  0.71194447  0.27987568  0.16348847    -0.82840
O630        O  0.79706121  0.28576201  0.27342446    -0.81160
C631        C  0.67472331  0.20529766  0.29061024     0.87010
O632        O  0.74824724  0.24157409  0.29064168    -0.88300
O633        O  0.74158827  0.18162347  0.27525158    -0.88410
O634        O  0.78027211  0.19491467  0.25661161    -0.75460
Mg635      Mg  0.65712103  0.20467595  0.23308480     1.57970
O636        O  0.66745328  0.13293900  0.25487377    -0.82840
H637        H  0.67427321  0.29014493  0.24250303    -0.06560
O638        O  0.76054293  0.25195908  0.23098158    -0.88110
H639        H  0.78888498  0.23714015  0.20528205    -0.06390
H640        H  0.73106965  0.26475987  0.31980055    -0.06570
C641        C  0.76741399  0.24151584  0.20895885     0.86980
C642        C  0.67823965  0.26921887  0.23632779     0.87570
C643        C  0.73616380  0.26244737  0.29829637     0.87620
H644        H  0.76675975  0.15549826  0.25613370    -0.06550
O645        O  0.71273941  0.16429297  0.21877942    -0.75570
Mg646      Mg  0.78505245  0.24088097  0.26592787     1.58000
H647        H  0.71153549  0.18025206  0.18025095    -0.06560
C648        C  0.72689367  0.30079882  0.16823542     0.92600
O649        O  0.77274528  0.31304303  0.24591447    -0.82800
C650        C  0.79339451  0.30867083  0.26137688     0.92660
O651        O  0.63250675  0.21493770  0.19512816    -0.82790
Mg652      Mg  0.70577883  0.15748927  0.26503339     1.58180
O653        O  0.73955671  0.30391837  0.19096359    -0.81120
O654        O  0.72971321  0.16643439  0.33661778    -0.82810
C655        C  0.64438454  0.96067629  0.32169716     0.00510
C656        C  0.64440162  0.98867757  0.32194816     0.00510
C657        C  0.70159633  0.87031131  0.36843555     0.03070
C658        C  0.71215204  0.86539781  0.39487150    -0.13080
C659        C  0.72317775  0.83959595  0.40138405     0.00570
C660        C  0.72284210  0.81868572  0.38154092    -0.11600
C661        C  0.71150347  0.82293937  0.35545837     0.03070
C662        C  0.70077827  0.84890293  0.34906561    -0.11020
H663        H  0.71177200  0.88155495  0.41012695     0.08660
H664        H  0.73189119  0.79897992  0.38647016     0.06190
H665        H  0.69230239  0.85277445  0.32882146     0.06040
C666        C  0.60807695  0.87670089  0.24882396     0.03070
C667        C  0.58167307  0.86899647  0.23966849    -0.13080
C668        C  0.57681978  0.84216151  0.23025239     0.00570
C669        C  0.59876158  0.82347656  0.22876991    -0.11600
C670        C  0.62510169  0.83070913  0.23831087     0.03070
C671        C  0.62926173  0.85710508  0.24878407    -0.11020
H672        H  0.56484063  0.88348744  0.24054321     0.08660
H673        H  0.59482815  0.80282333  0.22147227     0.06190
H674        H  0.64903945  0.86230149  0.25766013     0.06040
C675        C  0.84154773  0.74673458  0.39412736     0.03070
C676        C  0.82216364  0.74780849  0.37266232    -0.13080
C677        C  0.82884155  0.73836875  0.34617169     0.00570
C678        C  0.85544906  0.72843680  0.34135632    -0.11600
C679        C  0.87500827  0.72744159  0.36257598     0.03070
C680        C  0.86811172  0.73686489  0.38893103    -0.11020
H681        H  0.80150957  0.75488467  0.37704578     0.08660
H682        H  0.86072069  0.72025479  0.32131864     0.06190
H683        H  0.88298189  0.73564249  0.40548553     0.06040
C684        C  0.83141237  0.57176752  0.25515843     0.03070
C685        C  0.85776438  0.57866841  0.26463140    -0.13080
C686        C  0.86266251  0.60479490  0.27565759     0.00570
C687        C  0.84112097  0.62395146  0.27694236    -0.11600
C688        C  0.81486916  0.61750435  0.26666877     0.03070
C689        C  0.81015474  0.59112385  0.25622355    -0.11020
H690        H  0.87452419  0.56422618  0.26242083     0.08660
H691        H  0.84544862  0.64448878  0.28435675     0.06190
H692        H  0.79026868  0.58593168  0.24752744     0.06040
C693        C  0.57107207  0.72657233  0.13676251     0.03070
C694        C  0.57854098  0.71761399  0.11030148    -0.13080
C695        C  0.60502658  0.70698534  0.10563823     0.00570
C696        C  0.62331862  0.70415258  0.12797561    -0.11600
C697        C  0.61649023  0.71394250  0.15415028     0.03070
C698        C  0.59056919  0.72538276  0.15811864    -0.11020
H699        H  0.56423280  0.71940912  0.09347731     0.08660
H700        H  0.64374008  0.69603238  0.12438884     0.06190
H701        H  0.58546830  0.73373736  0.17812612     0.06040
C702        C  0.73767056  0.58050734  0.13306084     0.03070
C703        C  0.72553958  0.58558978  0.10733405    -0.13080
C704        C  0.71737856  0.61228810  0.10047639     0.00570
C705        C  0.72056933  0.63364577  0.11945665    -0.11600
C706        C  0.73189240  0.62882975  0.14545087     0.03070
C707        C  0.74098667  0.60228498  0.15185557    -0.11020
H708        H  0.72208291  0.56899464  0.09294507     0.08660
H709        H  0.71345172  0.65401062  0.11403221     0.06190
H710        H  0.74954134  0.59814599  0.17201490     0.06040
O711        O  0.69490378  0.74472433  0.21031081    -0.88400
C712        C  0.67491318  0.74174316  0.29193260     0.87630
Mg713      Mg  0.70497844  0.70887144  0.18687978     1.58150
O714        O  0.74175785  0.76620003  0.27704688    -0.88130
O715        O  0.71292989  0.78439812  0.22070720    -0.75460
C716        C  0.79406383  0.63935468  0.26279494     0.92680
O717        O  0.66261378  0.69640471  0.24233125    -0.75280
O718        O  0.77423244  0.63521678  0.24617599    -0.82780
Mg719      Mg  0.65757406  0.74242454  0.23440045     1.57960
C720        C  0.80717597  0.73529709  0.32486171     0.92600
O721        O  0.64431288  0.78710459  0.22813294    -0.81040
H722        H  0.76701778  0.79295701  0.25875731    -0.06390
C723        C  0.73629709  0.68508481  0.29847632     0.87540
O724        O  0.75121008  0.71593362  0.19262262    -0.75550
O725        O  0.68138565  0.75296693  0.27013413    -0.88320
O726        O  0.78459766  0.74825011  0.32763212    -0.81130
C727        C  0.71362717  0.80120854  0.33427270     0.92720
C728        C  0.64711169  0.80981904  0.24077508     0.92570
Mg729      Mg  0.78586234  0.70759599  0.26757993     1.57950
O730        O  0.79764289  0.66241980  0.27466896    -0.81050
O731        O  0.78093390  0.75373142  0.25895614    -0.75290
O732        O  0.70043758  0.80385423  0.31178837    -0.81130
O733        O  0.63322024  0.73196948  0.19632941    -0.82840
O734        O  0.74269586  0.64671059  0.18978257    -0.81160
C735        C  0.76334492  0.77197566  0.26497863     0.87010
O736        O  0.76216877  0.69714118  0.23187842    -0.88300
O737        O  0.74860537  0.70621905  0.29173627    -0.88410
O738        O  0.72940595  0.66710360  0.28089036    -0.75460
Mg739      Mg  0.70577959  0.79007127  0.26693488     1.57970
O740        O  0.72977843  0.78114709  0.33851071    -0.82840
H741        H  0.71145827  0.76928738  0.18186446    -0.06560
O742        O  0.70187338  0.68474515  0.22408184    -0.88110
H743        H  0.67667271  0.65728197  0.24133786    -0.06390
H744        H  0.79027655  0.71402959  0.20713261    -0.06570
C745        C  0.68023961  0.67845899  0.23575248     0.86980
C746        C  0.70629033  0.76623503  0.20325969     0.87570
C747        C  0.76889988  0.70883315  0.21039979     0.87620
H748        H  0.73053063  0.68222288  0.31974334    -0.06550
O749        O  0.69282356  0.73544049  0.30981121    -0.75570
Mg750      Mg  0.73704910  0.66055840  0.23478276     1.58000
H751        H  0.65360777  0.73646673  0.29552367    -0.06560
C752        C  0.63753439  0.71598890  0.17610860     0.92600
O753        O  0.71502610  0.67098945  0.16262148    -0.82800
C754        C  0.73037806  0.65034251  0.16690567     0.92660
O755        O  0.66738534  0.81438617  0.25676074    -0.82790
Mg756      Mg  0.73927473  0.74262801  0.31474468     1.58180
O757        O  0.66017590  0.70324349  0.17323825    -0.81120
O758        O  0.81097340  0.71843626  0.30526104    -0.82810
C759        C  0.95760543  0.66120031  0.31429897     0.00510
C760        C  0.98551723  0.65824421  0.31525250     0.00510
C761        C  0.19393688  0.84461459  0.39202660     0.03070
C762        C  0.20849132  0.86890114  0.38647312    -0.13080
C763        C  0.21551594  0.87559000  0.35923656     0.00570
C764        C  0.20571131  0.85877236  0.33775371    -0.11600
C765        C  0.19546360  0.83265652  0.34333247     0.03070
C766        C  0.18829054  0.82611821  0.37049968    -0.11020
H767        H  0.21565727  0.88140036  0.40343541     0.08660
H768        H  0.20983776  0.86419090  0.31656158     0.06190
H769        H  0.18003964  0.80598321  0.37523456     0.06040
C770        C  0.36976908  0.83795228  0.24655399     0.03070
C771        C  0.36715672  0.86401947  0.25837416    -0.13080
C772        C  0.34193018  0.87226990  0.26928430     0.00570
C773        C  0.31948345  0.85400980  0.26941252    -0.11600
C774        C  0.32203665  0.82736312  0.25887699     0.03070
C775        C  0.34714708  0.81976739  0.24686196    -0.11020
H776        H  0.38467470  0.87772479  0.25946472     0.08660
H777        H  0.29988733  0.86087142  0.27706976     0.06190
H778        H  0.34929241  0.79947277  0.23800835     0.06040
C779        C  0.24709742  0.60325033  0.11025621     0.03070
C780        C  0.23547836  0.57760668  0.11652830    -0.13080
C781        C  0.22639593  0.57204058  0.14341029     0.00570
C782        C  0.22809914  0.59265937  0.16357831    -0.11600
C783        C  0.24003157  0.61816495  0.15761225     0.03070
C784        C  0.25005773  0.62303791  0.13105911    -0.11020
H785        H  0.23251164  0.56253055  0.10041796     0.08660
H786        H  0.21921994  0.58913490  0.18371020     0.06190
H787        H  0.25812005  0.64314427  0.12586846     0.06040
C788        C  0.10155973  0.57990855  0.22897784     0.03070
C789        C  0.07557978  0.58654298  0.23969563    -0.13080
C790        C  0.06991659  0.61357891  0.24810820     0.00570
C791        C  0.09104248  0.63334509  0.24747453    -0.11600
C792        C  0.11672319  0.62714289  0.23617434     0.03070
C793        C  0.12150430  0.60067147  0.22620515    -0.11020
H794        H  0.06024033  0.57068048  0.24255248     0.08660
H795        H  0.08765113  0.65346563  0.25631534     0.06190
H796        H  0.14165146  0.59558728  0.21814848     0.06040
C797        C  0.11114952  0.72382263  0.40135436     0.03070
C798        C  0.08418267  0.71550120  0.39475016    -0.13080
C799        C  0.07857155  0.70398973  0.36887766     0.00570
C800        C  0.10039037  0.69894580  0.35066631    -0.11600
C801        C  0.12695010  0.70838581  0.35643315     0.03070
C802        C  0.13227840  0.72071200  0.38189546    -0.11020
H803        H  0.06755779  0.71911966  0.40909269     0.08660
H804        H  0.09606833  0.69000099  0.33070146     0.06190
H805        H  0.15261540  0.72881511  0.38621938     0.06040
C806        C  0.33065510  0.72530682  0.09946039     0.03070
C807        C  0.35712299  0.73531067  0.10519967    -0.13080
C808        C  0.36243142  0.74810383  0.13046907     0.00570
C809        C  0.34114677  0.75154947  0.14961836    -0.11600
C810        C  0.31475940  0.74124916  0.14419864     0.03070
C811        C  0.30972451  0.72804391  0.11915796    -0.11020
H812        H  0.37349519  0.73300866  0.09030342     0.08660
H813        H  0.34562623  0.76077319  0.16941735     0.06190
H814        H  0.28950593  0.71952226  0.11506075     0.06040
O815        O  0.26848678  0.73049988  0.23390637    -0.88400
C816        C  0.20926945  0.78960136  0.24290616     0.87630
Mg817      Mg  0.26294077  0.69568403  0.20677521     1.58150
O818        O  0.21776747  0.74422374  0.29849817    -0.88130
O819        O  0.27894806  0.74190467  0.27613177    -0.75460
C820        C  0.13966716  0.64696509  0.23755973     0.92680
O821        O  0.22604231  0.75201704  0.18829250    -0.75280
O822        O  0.15673365  0.64804088  0.21780776    -0.82780
Mg823      Mg  0.26037627  0.76981730  0.21577290     1.57960
C824        C  0.14701526  0.70983028  0.33379047     0.92600
O825        O  0.29576047  0.79170094  0.23854261    -0.81040
H826        H  0.24117407  0.72626304  0.32712034    -0.06390
C827        C  0.15588889  0.72607128  0.24427819     0.87540
O828        O  0.25060109  0.66817238  0.24311715    -0.75550
O829        O  0.23117306  0.77794523  0.24834884    -0.88320
O830        O  0.16058856  0.73193167  0.33047240    -0.81130
C831        C  0.19848437  0.81061654  0.32258475     0.92720
C832        C  0.29828108  0.80804404  0.25883399     0.92570
Mg833      Mg  0.17843680  0.68270118  0.28219834     1.57950
O834        O  0.14256747  0.66143281  0.25921534    -0.81050
O835        O  0.21369674  0.70057814  0.30885263    -0.75290
O836        O  0.22007023  0.81020467  0.30748343    -0.81130
O837        O  0.29167489  0.76110191  0.18229296    -0.82840
O838        O  0.21576987  0.64345091  0.19120591    -0.81160
C839        C  0.22482814  0.72402948  0.31219849     0.87010
O840        O  0.20666181  0.67518377  0.24941212    -0.88300
O841        O  0.17014764  0.72221378  0.26496171    -0.88410
O842        O  0.16042413  0.71336409  0.22193726    -0.75460
Mg843      Mg  0.24801501  0.77554164  0.28913731     1.57970
O844        O  0.18080556  0.79148202  0.32191102    -0.82840
H845        H  0.29995528  0.71339539  0.25408088    -0.06560
O846        O  0.22147242  0.70886745  0.19991500    -0.88110
H847        H  0.19945335  0.72575868  0.16960646    -0.06390
H848        H  0.22782413  0.64788824  0.27159428    -0.06570
C849        C  0.21512207  0.72850290  0.18515741     0.86980
C850        C  0.28322394  0.72795972  0.25445378     0.87570
C851        C  0.22808893  0.66291201  0.25524846     0.87620
H852        H  0.13957298  0.74107941  0.24503047    -0.06550
O853        O  0.18723585  0.78419522  0.25596282    -0.75570
Mg854      Mg  0.19012539  0.67911603  0.20868794     1.58000
H855        H  0.20874134  0.80444983  0.22640879    -0.06560
C856        C  0.29392816  0.74071288  0.16617572     0.92600
O857        O  0.25667944  0.65933016  0.17803921    -0.82800
C858        C  0.23776535  0.64125695  0.17716568     0.92660
O859        O  0.28080125  0.80836475  0.27842106    -0.82790
Mg860      Mg  0.17571940  0.75612412  0.29260399     1.58180
O861        O  0.27984496  0.71890245  0.16935522    -0.81120
O862        O  0.14845675  0.69012182  0.31679863    -0.82810
C863        C  0.28207584  0.65888643  0.98749141     0.00510
C864        C  0.28130813  0.66066654  0.01540128     0.00510
C865        C  0.32195483  0.67107270  0.04445313    -0.20360
C866        C  0.29841804  0.68107072  0.03092611    -0.06930
C867        C  0.28959907  0.70816425  0.03675995     0.13940
C868        C  0.30268599  0.72313795  0.05750233    -0.20410
C869        C  0.32388149  0.71173350  0.07316354    -0.06930
C870        C  0.33444288  0.68578243  0.06594879     0.13930
C871        C  0.35737667  0.67266299  0.08208715    -0.23760
H872        H  0.32946798  0.65078354  0.03950200     0.15220
H873        H  0.29494921  0.74330536  0.06286126     0.15240
C874        C  0.26590239  0.72191232  0.02279742    -0.23710
H875        H  0.36211397  0.65173444  0.07441725     0.05460
H876        H  0.35144590  0.67094642  0.10405890     0.08680
H877        H  0.37636634  0.68517823  0.08030026     0.08680
H878        H  0.24981047  0.72710932  0.03810485     0.08670
H879        H  0.25674727  0.70884094  0.00712425     0.08670
H880        H  0.27308426  0.74102531  0.01263345     0.05440
C881        C  0.23513579  0.63182262  0.07034825    -0.20360
C882        C  0.25233756  0.61172624  0.08151328    -0.06930
C883        C  0.27575381  0.60329039  0.06670065     0.13940
C884        C  0.28278307  0.61712445  0.04225629    -0.20410
C885        C  0.26730129  0.63964961  0.03291180    -0.06930
C886        C  0.24215452  0.64571958  0.04620036     0.13930
C887        C  0.22257894  0.66733862  0.03622876    -0.23760
H888        H  0.21671882  0.63775532  0.08141070     0.15220
H889        H  0.30171804  0.61192838  0.03179911     0.15240
C890        C  0.29425251  0.58113128  0.07766007    -0.23710
H891        H  0.22149897  0.68430536  0.05141286     0.05460
H892        H  0.22849950  0.67562391  0.01606526     0.08680
H893        H  0.20176666  0.65823012  0.03373936     0.08680
H894        H  0.28250739  0.56167308  0.07959954     0.08670
H895        H  0.30231508  0.58715342  0.09816292     0.08670
H896        H  0.31203126  0.57742335  0.06384005     0.05440
C897        C  0.01926126  0.69624280  0.32002468    -0.20360
C898        C  0.00355242  0.67582056  0.33302339    -0.06930
C899        C  0.00915547  0.66973184  0.36101353     0.13940
C900        C  0.03268026  0.68112860  0.37359496    -0.20410
C901        C  0.05004277  0.69903411  0.35910208    -0.06930
C902        C  0.04153862  0.70874014  0.33308135     0.13930
C903        C  0.05598181  0.73176270  0.31814329    -0.23760
H904        H  0.01510028  0.70188098  0.29896751     0.15220
H905        H  0.03847181  0.67452020  0.39406967     0.15240
C906        C  0.99171601  0.65051040  0.37784603    -0.23710
H907        H  0.04077862  0.74783354  0.31265819     0.05460
H908        H  0.06548150  0.72381378  0.29898789     0.08680
H909        H  0.07206873  0.74180671  0.33083146     0.08680
H910        H  0.97549481  0.64038554  0.36553203     0.08670
H911        H  0.98180669  0.66213523  0.39476079     0.08670
H912        H  0.00474715  0.63423702  0.38704458     0.05440
C913        C  0.03477253  0.60640439  0.28438943    -0.20360
C914        C  0.04326300  0.62082655  0.26094630    -0.06930
C915        C  0.02809780  0.64398590  0.25236590     0.13940
C916        C  0.00740907  0.65427400  0.26949287    -0.20410
C917        C  0.00070364  0.64153752  0.29448355    -0.06930
C918        C  0.01366965  0.61647483  0.30128612     0.13930
C919        C  0.00667088  0.60099289  0.32703147    -0.23760
H920        H  0.04608287  0.58831256  0.29065229     0.15220
H921        H  0.99814427  0.67375780  0.26441857     0.15240
C922        C  0.03371541  0.65807477  0.22531824    -0.23710
H923        H  0.01732133  0.58087826  0.32792220     0.05460
H924        H  0.98427182  0.59699478  0.32793856     0.08680
H925        H  0.01341203  0.61289553  0.34509262     0.08680
H926        H  0.03228922  0.64290030  0.20835019     0.08670
H927        H  0.05437378  0.66767098  0.22517605     0.08670
H928        H  0.01852969  0.67455816  0.22116531     0.05440
C929        C  0.90234002  0.63459410  0.26595000    -0.20360
C930        C  0.89087818  0.61400735  0.28233338    -0.06930
C931        C  0.90508319  0.60508472  0.30592898     0.13940
C932        C  0.92952781  0.61853751  0.31364281    -0.20410
C933        C  0.93937098  0.64149667  0.29903123    -0.06930
C934        C  0.92621035  0.64861363  0.27397405     0.13930
C935        C  0.93625433  0.67130111  0.25565474    -0.23760
H936        H  0.89154648  0.64076145  0.24743854     0.15220
H937        H  0.93946884  0.61275627  0.33268244     0.15240
C938        C  0.89343752  0.58285646  0.32401322    -0.23710
H939        H  0.92299210  0.67387015  0.23722963     0.05460
H940        H  0.95702073  0.66649652  0.24799538     0.08680
H941        H  0.93591307  0.69094644  0.26670951     0.08680
H942        H  0.89164371  0.56346394  0.31219389     0.08670
H943        H  0.87277364  0.58897254  0.33151516     0.08670
H944        H  0.90672840  0.57895447  0.34217467     0.05440
C945        C  0.91939117  0.72512713  0.33791386    -0.20360
C946        C  0.90135086  0.71345727  0.35706989    -0.06930
C947        C  0.90582104  0.68638250  0.36614631     0.13940
C948        C  0.92657782  0.67077847  0.35381451    -0.20410
C949        C  0.94267281  0.68128935  0.33219030    -0.06930
C950        C  0.94000405  0.70945583  0.32529488     0.13930
C951        C  0.95722757  0.72354046  0.30383327    -0.23760
H952        H  0.91602540  0.74608248  0.33123609     0.15220
H953        H  0.92885725  0.64962064  0.35995826     0.15240
C954        C  0.88742517  0.67319884  0.38732872    -0.23710
H955        H  0.97017319  0.73952622  0.31373467     0.05460
H956        H  0.94370162  0.73358858  0.28843552     0.08680
H957        H  0.97066708  0.70919585  0.29266373     0.08680
H958        H  0.86577571  0.67328735  0.38004198     0.08670
H959        H  0.88888709  0.68464275  0.40699907     0.08670
H960        H  0.89334269  0.65158380  0.39142584     0.05440
C961        C  0.66554305  0.90578800  0.37263529    -0.20360
C962        C  0.69041207  0.89750828  0.36092380    -0.06930
C963        C  0.70282634  0.91407816  0.34060046     0.13940
C964        C  0.68867929  0.93712322  0.33063065    -0.20410
C965        C  0.66225559  0.94383076  0.34022158    -0.06930
C966        C  0.65136236  0.92874939  0.36265484     0.13930
C967        C  0.62463433  0.93567803  0.37629547    -0.23760
H968        H  0.65642019  0.89344971  0.38880099     0.15220
H969        H  0.69744477  0.94867001  0.31377422     0.15240
C970        C  0.73066723  0.90711687  0.32897070    -0.23710
H971        H  0.62808776  0.93872232  0.39866173     0.05460
H972        H  0.60970624  0.91866881  0.37331092     0.08680
H973        H  0.61581830  0.95473515  0.36826894     0.08680
H974        H  0.72992247  0.88701403  0.31831378     0.08670
H975        H  0.74601733  0.90619289  0.34586234     0.08670
H976        H  0.73769497  0.92272346  0.31387600     0.05440
C977        C  0.64799499  0.93666933  0.27675768    -0.20360
C978        C  0.63124635  0.94499308  0.29868545    -0.06930
C979        C  0.60391905  0.93497297  0.29990000     0.13940
C980        C  0.59578025  0.91379796  0.28200448    -0.20410
C981        C  0.61361876  0.90390881  0.26158381    -0.06930
C982        C  0.63891009  0.91764246  0.25730875     0.13930
C983        C  0.65708124  0.91235156  0.23276386    -0.23760
H984        H  0.66879179  0.94416639  0.27505031     0.15220
H985        H  0.57589196  0.90416456  0.28495622     0.15240
C986        C  0.58302022  0.94557737  0.31995557    -0.23710
H987        H  0.66138668  0.93206113  0.22213379     0.05460
H988        H  0.64729898  0.89854505  0.21747728     0.08680
H989        H  0.67687063  0.90328633  0.23960703     0.08680
H990        H  0.56445991  0.95241262  0.30856261     0.08670
H991        H  0.59062342  0.96347076  0.33159182     0.08670
H992        H  0.57702797  0.92905834  0.33447542     0.05440
C993        C  0.66066033  0.04551654  0.37236538    -0.20360
C994        C  0.68735543  0.05206735  0.36399299    -0.06930
C995        C  0.70193658  0.03353503  0.34721384     0.13940
C996        C  0.68841815  0.01018505  0.33695494    -0.20410
C997        C  0.66038193  0.00544888  0.34228021    -0.06930
C998        C  0.64699609  0.02242047  0.36182730     0.13930
C999        C  0.61817386  0.01734374  0.37172765    -0.23760
H1000       H  0.64981911  0.05936829  0.38600503     0.15220
H1001       H  0.69939952  0.99681947  0.32314782     0.15240
C1002       C  0.73144342  0.03889610  0.33937934    -0.23710
H1003       H  0.61827572  0.01497462  0.39443217     0.05460
H1004       H  0.60914303  0.99855536  0.36295990     0.08680
H1005       H  0.60490171  0.03501899  0.36620542     0.08680
H1006       H  0.74420700  0.04063133  0.35824312     0.08670
H1007       H  0.73303465  0.05823673  0.32745361     0.08670
H1008       H  0.73993776  0.02208944  0.32653634     0.05440
C1009       C  0.63443312  0.03128053  0.25703220    -0.20360
C1010       C  0.61050283  0.04586505  0.26370463    -0.06930
C1011       C  0.59536404  0.03796689  0.28727729     0.13940
C1012       C  0.60542617  0.01676055  0.30402095    -0.20410
C1013       C  0.63120958  0.00475941  0.29927591    -0.06930
C1014       C  0.64562537  0.01183878  0.27496333     0.13930
C1015       C  0.67364185  0.00095570  0.26777935    -0.23760
H1016       H  0.64600269  0.03706218  0.23886145     0.15220
H1017       H  0.59372946  0.01089140  0.32187332     0.15240
C1018       C  0.56993638  0.05308800  0.29641676    -0.23710
H1019       H  0.67271155  0.99030650  0.24761269     0.05460
H1020       H  0.68162348  0.98641724  0.28307123     0.08680
H1021       H  0.68849912  0.01823990  0.26635309     0.08680
H1022       H  0.55300680  0.04976377  0.28152475     0.08670
H1023       H  0.57442246  0.07534932  0.29840694     0.08670
H1024       H  0.56251008  0.04573214  0.31671592     0.05440
C1025       C  0.67607288  0.32831422  0.03503682    -0.20360
C1026       C  0.68120229  0.30034137  0.03009395    -0.06930
C1027       C  0.70273962  0.28737655  0.04473159     0.13940
C1028       C  0.71828775  0.30255082  0.06339569    -0.20410
C1029       C  0.71009551  0.32879184  0.07184392    -0.06930
C1030       C  0.68922078  0.34234562  0.05674502     0.13930
C1031       C  0.67905600  0.37043338  0.06459178    -0.23760
H1032       H  0.65963840  0.33830491  0.02380917     0.15220
H1033       H  0.73479371  0.29229346  0.07433442     0.15240
C1034       C  0.70888965  0.25718310  0.04343757    -0.23710
H1035       H  0.66109376  0.37668644  0.05194987     0.05460
H1036       H  0.69546557  0.38587302  0.06120187     0.08680
H1037       H  0.67256677  0.37059519  0.08647221     0.08680
H1038       H  0.73069099  0.25398618  0.03750216     0.08670
H1039       H  0.69593384  0.24622508  0.02869903     0.08670
H1040       H  0.70539951  0.24782255  0.06396011     0.05440
C1041       C  0.62246055  0.23363499  0.06015061    -0.20360
C1042       C  0.61011649  0.25222491  0.07826678    -0.06930
C1043       C  0.60911797  0.28019443  0.07139773     0.13940
C1044       C  0.62292018  0.28936020  0.04787329    -0.20410
C1045       C  0.63836964  0.27135496  0.03133637    -0.06930
C1046       C  0.63654839  0.24275497  0.03663501     0.13930
C1047       C  0.64977795  0.22120011  0.01897990    -0.23760
H1048       H  0.62254071  0.21198293  0.06528879     0.15220
H1049       H  0.62314749  0.31110810  0.04340601     0.15240
C1050       C  0.59467265  0.30051835  0.08966846    -0.23710
H1051       H  0.63364678  0.20763071  0.01018762     0.05460
H1052       H  0.66394629  0.20855506  0.03162349     0.08680
H1053       H  0.66170330  0.23000115  0.00191467     0.08680
H1054       H  0.60427169  0.30058177  0.11038827     0.08670
H1055       H  0.57264593  0.29476387  0.09158057     0.08670
H1056       H  0.59583439  0.32167965  0.08127679     0.05440
C1057       C  0.94010834  0.24717644  0.32758652    -0.20360
C1058       C  0.94304805  0.27335915  0.33931081    -0.06930
C1059       C  0.92695062  0.28009291  0.36250148     0.13940
C1060       C  0.90545546  0.26260456  0.37046296    -0.20410
C1061       C  0.90055361  0.23787819  0.35656263    -0.06930
C1062       C  0.91917974  0.22923878  0.33607568     0.13930
C1063       C  0.91672586  0.20140013  0.32276838    -0.23760
H1064       H  0.95262723  0.24155996  0.31017903     0.15220
H1065       H  0.89177211  0.26885561  0.38688970     0.15240
C1066       C  0.93180390  0.30566095  0.37899253    -0.23710
H1067       H  0.93383478  0.19757437  0.30815636     0.05460
H1068       H  0.89720478  0.19963519  0.31112318     0.08680
H1069       H  0.91738295  0.18523908  0.33883815     0.08680
H1070       H  0.91502580  0.32059941  0.37518525     0.08670
H1071       H  0.95199104  0.31491549  0.37416151     0.08670
H1072       H  0.93232286  0.30048260  0.40122004     0.05440
C1073       C  0.92480189  0.29590936  0.28357330    -0.20360
C1074       C  0.93866201  0.31086253  0.30398752    -0.06930
C1075       C  0.93121397  0.33857924  0.30846451     0.13940
C1076       C  0.90719941  0.34881081  0.29602299    -0.20410
C1077       C  0.89155208  0.33254788  0.27802041    -0.06930
C1078       C  0.90195687  0.30667464  0.26990863     0.13930
C1079       C  0.88952099  0.28979567  0.24703750    -0.23760
H1080       H  0.93146125  0.27528964  0.27865330     0.15220
H1081       H  0.90006205  0.36920793  0.30119770     0.15240
C1082       C  0.94833393  0.35766496  0.32576930    -0.23710
H1083       H  0.90573945  0.28459494  0.23185618     0.05460
H1084       H  0.87318816  0.30083650  0.23565788     0.08680
H1085       H  0.88087837  0.27048010  0.25555856     0.08680
H1086       H  0.96890744  0.36003169  0.31634114     0.08670
H1087       H  0.95048552  0.34999504  0.34692752     0.08670
H1088       H  0.93908013  0.37843722  0.32700038     0.05440
C1089       C  0.04090198  0.34058356  0.29078926    -0.20360
C1090       C  0.04112567  0.33100444  0.26368328    -0.06930
C1091       C  0.01879305  0.31530026  0.25384856     0.13940
C1092       C  0.99792598  0.30738553  0.27218912    -0.20410
C1093       C  0.99962806  0.31394050  0.30029545    -0.06930
C1094       C  0.02026508  0.33251772  0.30913336     0.13930
C1095       C  0.02127393  0.34400473  0.33782935    -0.23760
H1096       H  0.05767717  0.35337410  0.29807358     0.15220
H1097       H  0.98161449  0.29406293  0.26497689     0.15240
C1098       C  0.01757795  0.30606566  0.22433237    -0.23710
H1099       H  0.02244848  0.36673652  0.33683844     0.05460
H1100       H  0.03971824  0.33616169  0.34874387     0.08680
H1101       H  0.00257125  0.33892381  0.34973412     0.08680
H1102       H  0.03544276  0.29275287  0.21960649     0.08670
H1103       H  0.01798473  0.32424919  0.21059146     0.08670
H1104       H  0.99852561  0.29422178  0.21994875     0.05440
C1105       C  0.04042073  0.24404122  0.33591468    -0.20360
C1106       C  0.05014956  0.25391325  0.36124195    -0.06930
C1107       C  0.03423920  0.27343847  0.37573781     0.13940
C1108       C  0.01029280  0.28395627  0.36342562    -0.20410
C1109       C  0.00304041  0.27694585  0.33638353    -0.06930
C1110       C  0.01743071  0.25552156  0.32311315     0.13930
C1111       C  0.00984698  0.24475331  0.29508526    -0.23760
H1112       H  0.05191502  0.22830582  0.32515730     0.15220
H1113       H  0.99863584  0.29954290  0.37405825     0.15240
C1114       C  0.04343377  0.28512691  0.40293001    -0.23710
H1115       H  0.00644213  0.22224784  0.29626903     0.05460
H1116       H  0.02682227  0.24897327  0.28041121     0.08680
H1117       H  0.99078767  0.25389929  0.28692626     0.08680
H1118       H  0.06462585  0.29346130  0.40112029     0.08670
H1119       H  0.04275749  0.26910438  0.41905684     0.08670
H1120       H  0.02985298  0.30208034  0.40980852     0.05440
C1121       C  0.34403780  0.90277985  0.30967154    -0.20360
C1122       C  0.33878808  0.89972775  0.28155750    -0.06930
C1123       C  0.32668629  0.92141351  0.26673484     0.13940
C1124       C  0.31682646  0.94435068  0.28109418    -0.20410
C1125       C  0.31790750  0.94527237  0.31003479    -0.06930
C1126       C  0.33367203  0.92534328  0.32419017     0.13930
C1127       C  0.33716057  0.92632075  0.35500313    -0.23760
H1128       H  0.35399033  0.88622927  0.32071351     0.15220
H1129       H  0.30452528  0.95922253  0.27010074     0.15240
C1130       C  0.32217207  0.91925505  0.23616807    -0.23710
H1131       H  0.35049507  0.90942604  0.36249084     0.05460
H1132       H  0.31704013  0.92427503  0.36546830     0.08680
H1133       H  0.34682579  0.94598073  0.36119016     0.08680
H1134       H  0.30864266  0.90146790  0.23150247     0.08670
H1135       H  0.34224341  0.91642015  0.22568925     0.08670
H1136       H  0.31232912  0.93799394  0.22772090     0.05440
C1137       C  0.23878361  0.92161075  0.36796826    -0.20360
C1138       C  0.23638486  0.89712250  0.35270292    -0.06930
C1139       C  0.25504485  0.89295131  0.33096661     0.13940
C1140       C  0.26893457  0.91524417  0.32018430    -0.20410
C1141       C  0.27298975  0.93938832  0.33559986    -0.06930
C1142       C  0.25912858  0.94132133  0.36130100     0.13930
C1143       C  0.26729435  0.96127073  0.38341002    -0.23760
H1144       H  0.22634915  0.92453412  0.38618023     0.15220
H1145       H  0.27938816  0.91197168  0.30091506     0.15240
C1146       C  0.26383994  0.86495912  0.32099203    -0.23710
H1147       H  0.27097168  0.94997556  0.40289253     0.05460
H1148       H  0.25054983  0.97633430  0.38680998     0.08680
H1149       H  0.28684718  0.97188056  0.37854755     0.08680
H1150       H  0.25688606  0.86172121  0.29948808     0.08670
H1151       H  0.25640485  0.84802164  0.33422811     0.08670
H1152       H  0.28660988  0.86362382  0.32202871     0.05440
C1153       C  0.27643228  0.02147797  0.35614704    -0.20360
C1154       C  0.26831281  0.00235268  0.33609249    -0.06930
C1155       C  0.24106369  0.00327631  0.32582578     0.13940
C1156       C  0.22310453  0.02372177  0.33547268    -0.20410
C1157       C  0.23188990  0.04350290  0.35460147    -0.06930
C1158       C  0.25875697  0.04200398  0.36545048     0.13930
C1159       C  0.26970481  0.06323738  0.38526145    -0.23760
H1160       H  0.29733984  0.02125095  0.36366126     0.15220
H1161       H  0.20263076  0.02528148  0.32676510     0.15240
C1162       C  0.23076948  0.98441674  0.30352578    -0.23710
H1163       H  0.29167280  0.05966933  0.39040660     0.05460
H1164       H  0.25792479  0.06252404  0.40475222     0.08680
H1165       H  0.26804458  0.08401335  0.37605288     0.08680
H1166       H  0.21313707  0.97223381  0.31140115     0.08670
H1167       H  0.24664735  0.97000179  0.29607712     0.08670
H1168       H  0.22380482  0.99676461  0.28565210     0.05440
C1169       C  0.29638261  0.01502483  0.28112894    -0.20360
C1170       C  0.30860535  0.00432782  0.30491514    -0.06930
C1171       C  0.33400104  0.01519519  0.31403411     0.13940
C1172       C  0.34441249  0.03898671  0.30141402    -0.20410
C1173       C  0.33046875  0.05128560  0.27936131    -0.06930
C1174       C  0.30736528  0.03788892  0.26779059     0.13930
C1175       C  0.29345015  0.04743637  0.24177047    -0.23760
H1176       H  0.27737732  0.00615931  0.27354506     0.15220
H1177       H  0.36275841  0.04870798  0.30956118     0.15240
C1178       C  0.34999609  0.00210000  0.33703109    -0.23710
H1179       H  0.29239346  0.03015984  0.22691886     0.05460
H1180       H  0.30465241  0.06437174  0.23145608     0.08680
H1181       H  0.27221844  0.05431880  0.24650174     0.08680
H1182       H  0.35730479  0.98171289  0.33019134     0.08670
H1183       H  0.33721857  0.99962299  0.35568791     0.08670
H1184       H  0.36840100  0.01442987  0.34263948     0.05440
C1185       C  0.29428857  0.27879031  0.06256551    -0.20360
C1186       C  0.30412982  0.27827259  0.03516624    -0.06930
C1187       C  0.32886783  0.26297845  0.03106183     0.13940
C1188       C  0.33665632  0.24296103  0.05068082    -0.20410
C1189       C  0.32442001  0.24253543  0.07681347    -0.06930
C1190       C  0.30615637  0.26380364  0.08355507     0.13930
C1191       C  0.29901127  0.27176028  0.11276168    -0.23760
H1192       H  0.27772163  0.29170954  0.06899082     0.15220
H1193       H  0.35344835  0.22907533  0.04625284     0.15240
C1194       C  0.35036779  0.27083381  0.01039528    -0.23710
H1195       H  0.30175204  0.29424562  0.11539246     0.05460
H1196       H  0.31257469  0.26190841  0.12818563     0.08680
H1197       H  0.27727179  0.26638466  0.11713805     0.08680
H1198       H  0.37039673  0.27383604  0.02100181     0.08670
H1199       H  0.34555830  0.29075654  0.00072837     0.08670
H1200       H  0.35297510  0.25434473  0.99488898     0.05440
C1201       C  0.28176653  0.33875549  0.03879627    -0.20360
C1202       C  0.26907202  0.31620747  0.02594100    -0.06930
C1203       C  0.24223749  0.30840692  0.03450439     0.13940
C1204       C  0.23104735  0.32018721  0.05830863    -0.20410
C1205       C  0.24611331  0.33916253  0.07382836    -0.06930
C1206       C  0.27085997  0.34997711  0.06308456     0.13930
C1207       C  0.28712795  0.37129637  0.07857978    -0.23760
H1208       H  0.30219294  0.34479539  0.03221137     0.15220
H1209       H  0.21163768  0.31266368  0.06631150     0.15240
C1210       C  0.22698085  0.28510542  0.02117701    -0.23710
H1211       H  0.30655348  0.37662681  0.06781675     0.05460
H1212       H  0.29246191  0.36346904  0.09934540     0.08680
H1213       H  0.27483436  0.39032986  0.08063057     0.08680
H1214       H  0.23980839  0.26630830  0.02120371     0.08670
H1215       H  0.22138295  0.29108006  0.99998873     0.08670
H1216       H  0.20753771  0.28020668  0.03211731     0.05440
C1217       C  0.02818699  0.34576736  0.72020194    -0.20360
C1218       C  0.03886940  0.32737994  0.73973967    -0.06930
C1219       C  0.02609643  0.30151963  0.74287846     0.13940
C1220       C  0.00743963  0.29266543  0.72299369    -0.20410
C1221       C  0.99821330  0.31008477  0.70194709    -0.06930
C1222       C  0.00723588  0.33771877  0.70192283     0.13930
C1223       C  0.99590055  0.35905657  0.68279821    -0.23760
H1224       H  0.03709872  0.36606050  0.71815238     0.15220
H1225       H  0.00109968  0.27141403  0.72344517     0.15240
C1226       C  0.03215185  0.28246235  0.76654815    -0.23710
H1227       H  0.01236840  0.36664016  0.66894752     0.05460
H1228       H  0.98792478  0.37656084  0.69500832     0.08680
H1229       H  0.97865454  0.35119788  0.67038286     0.08680
H1230       H  0.04558221  0.29202463  0.78232160     0.08670
H1231       H  0.04203663  0.26346091  0.75880226     0.08670
H1232       H  0.01258529  0.27686729  0.77691486     0.05440
C1233       C  0.00822146  0.25301742  0.66830968    -0.20360
C1234       C  0.00201241  0.27996797  0.66020571    -0.06930
C1235       C  0.01744234  0.29211963  0.63871067     0.13940
C1236       C  0.04037189  0.27836825  0.62812968    -0.20410
C1237       C  0.04793639  0.25258871  0.63811453    -0.06930
C1238       C  0.03105998  0.23918843  0.65753814     0.13930
C1239       C  0.03759920  0.21065184  0.66746126    -0.23760
H1240       H  0.99632112  0.24341240  0.68444675     0.15220
H1241       H  0.05311982  0.28834743  0.61280296     0.15240
C1242       C  0.01072778  0.31970604  0.62672800    -0.23710
H1243       H  0.02186713  0.20298674  0.68213801     0.05460
H1244       H  0.05780032  0.21044428  0.67807874     0.08680
H1245       H  0.03825158  0.19638939  0.64967236     0.08680
H1246       H  0.02730834  0.33456032  0.63180778     0.08670
H1247       H  0.99077732  0.32754190  0.63406236     0.08670
H1248       H  0.00908973  0.31795596  0.60402130     0.05440
C1249       C  0.23870929  0.30750021  0.92720318    -0.20360
C1250       C  0.24794554  0.33377821  0.91979912    -0.06930
C1251       C  0.26553543  0.34807998  0.93816452     0.13940
C1252       C  0.27477311  0.33481116  0.96221438    -0.20410
C1253       C  0.26871286  0.30703004  0.96722850    -0.06930
C1254       C  0.24925320  0.29371913  0.95003652     0.13930
C1255       C  0.23952828  0.26467437  0.95441195    -0.23760
H1256       H  0.22425747  0.29680113  0.91397113     0.15220
H1257       H  0.28899120  0.34535963  0.97574116     0.15240
C1258       C  0.27667458  0.37619658  0.93163419    -0.23710
H1259       H  0.24682724  0.25148596  0.93730077     0.05460
H1260       H  0.21669206  0.26416799  0.95483438     0.08680
H1261       H  0.24660925  0.25599260  0.97410007     0.08680
H1262       H  0.25999255  0.39159680  0.93245235     0.08670
H1263       H  0.28633642  0.37620048  0.91096356     0.08670
H1264       H  0.29255919  0.38271536  0.94672458     0.05440
C1265       C  0.33215044  0.26205612  0.92954553    -0.20360
C1266       C  0.32385451  0.23462332  0.92959370    -0.06930
C1267       C  0.30808234  0.22442920  0.95176364     0.13940
C1268       C  0.29923664  0.24262414  0.97238511    -0.20410
C1269       C  0.30489682  0.27086036  0.97056670    -0.06930
C1270       C  0.32313474  0.28023795  0.94977137     0.13930
C1271       C  0.33368587  0.30928927  0.94830820    -0.23760
H1272       H  0.34480888  0.26966863  0.91283219     0.15220
H1273       H  0.28620176  0.23505946  0.98878548     0.15240
C1274       C  0.29929612  0.19485816  0.95354570    -0.23710
H1275       H  0.32534822  0.31958430  0.92973163     0.05460
H1276       H  0.35649099  0.30909847  0.94705613     0.08680
H1277       H  0.32841933  0.32136169  0.96680699     0.08680
H1278       H  0.30747759  0.18226836  0.93642573     0.08670
H1279       H  0.27649416  0.19357679  0.95310963     0.08670
H1280       H  0.30686230  0.18591366  0.97312555     0.05440
C1281       C  0.32499833  0.03369396  0.73414615    -0.20360
C1282       C  0.33400405  0.05521228  0.71726919    -0.06930
C1283       C  0.33286258  0.05177911  0.68849961     0.13940
C1284       C  0.32234948  0.02736829  0.67745211    -0.20410
C1285       C  0.31062260  0.00660791  0.69389195    -0.06930
C1286       C  0.31284574  0.00971448  0.72296222     0.13930
C1287       C  0.30150559  0.98895514  0.74272114    -0.23760
H1288       H  0.32582555  0.03646388  0.75621312     0.15220
H1289       H  0.32164796  0.02568893  0.65552323     0.15240
C1290       C  0.34104593  0.07411569  0.66857847    -0.23710
H1291       H  0.31522211  0.97087828  0.74311001     0.05460
H1292       H  0.28017204  0.98326514  0.73698233     0.08680
H1293       H  0.30098458  0.99698180  0.76407942     0.08680
H1294       H  0.35007083  0.09239711  0.67874205     0.08670
H1295       H  0.32265495  0.08075761  0.65674767     0.08670
H1296       H  0.35661761  0.06609860  0.65402184     0.05440
C1297       C  0.24417366  0.00915598  0.68064436    -0.20360
C1298       C  0.26738270  0.00217711  0.66507172    -0.06930
C1299       C  0.26935971  0.01204609  0.63769419     0.13940
C1300       C  0.25079814  0.03210148  0.62854409    -0.20410
C1301       C  0.22966822  0.04171612  0.64561710    -0.06930
C1302       C  0.22463765  0.02789889  0.67074832     0.13930
C1303       C  0.19845887  0.03224715  0.68681100    -0.23760
H1304       H  0.24182121  0.00062825  0.70107951     0.15220
H1305       H  0.25414304  0.04162984  0.60868985     0.15240
C1306       C  0.29128932  0.00295610  0.61793273    -0.23710
H1307       H  0.19709370  0.01800796  0.70458665     0.05460
H1308       H  0.18049807  0.02821447  0.67326571     0.08680
H1309       H  0.19700914  0.05333732  0.69504096     0.08680
H1310       H  0.30648684  0.98936940  0.62772920     0.08670
H1311       H  0.30254645  0.02109301  0.60985303     0.08670
H1312       H  0.28164227  0.99190180  0.60043972     0.05440
C1313       C  0.25811287  0.90472115  0.63409949    -0.20360
C1314       C  0.23407535  0.89912347  0.64885060    -0.06930
C1315       C  0.22639616  0.91674912  0.67057142     0.13940
C1316       C  0.24392711  0.93855006  0.67802505    -0.20410
C1317       C  0.26936564  0.94270303  0.66483122    -0.06930
C1318       C  0.27596678  0.92593434  0.64193316     0.13930
C1319       C  0.30203995  0.92891060  0.62568388    -0.23760
H1320       H  0.26379360  0.89143376  0.61714755     0.15220
H1321       H  0.23874132  0.95105921  0.69565859     0.15240
C1322       C  0.19998223  0.91237976  0.68614594    -0.23710
H1323       H  0.29695671  0.93277844  0.60376127     0.05460
H1324       H  0.31427878  0.90977295  0.62723644     0.08680
H1325       H  0.31484888  0.94600247  0.63288799     0.08680
H1326       H  0.20035004  0.89231686  0.69688727     0.08670
H1327       H  0.18233677  0.91283685  0.67165281     0.08670
H1328       H  0.19673505  0.92857136  0.70187496     0.05440
C1329       C  0.34600551  0.90874830  0.70061317    -0.20360
C1330       C  0.33065366  0.89282992  0.71923272    -0.06930
C1331       C  0.30603438  0.90371463  0.73004565     0.13940
C1332       C  0.29518061  0.92765646  0.71860453    -0.20410
C1333       C  0.30880084  0.94207791  0.69755990    -0.06930
C1334       C  0.33561515  0.93363603  0.69009955     0.13930
C1335       C  0.35358606  0.95004009  0.67104323    -0.23760
H1336       H  0.36569776  0.90124654  0.69343366     0.15220
H1337       H  0.27514060  0.93455407  0.72534439     0.15240
C1338       C  0.29110141  0.89036460  0.75376059    -0.23710
H1339       H  0.35896918  0.93754041  0.65274954     0.05460
H1340       H  0.37286084  0.95574741  0.68189962     0.08680
H1341       H  0.34362222  0.96925395  0.66414380     0.08680
H1342       H  0.30547708  0.88771580  0.77130877     0.08670
H1343       H  0.28255002  0.87016394  0.74776437     0.08670
H1344       H  0.27361726  0.90310440  0.76096470     0.05440
C1345       C  0.27734702  0.60611055  0.93194636    -0.20360
C1346       C  0.24973329  0.60924653  0.92460297    -0.06930
C1347       C  0.23139103  0.62193506  0.94308445     0.13940
C1348       C  0.24183409  0.63425162  0.96701279    -0.20410
C1349       C  0.27025974  0.63511260  0.97199581    -0.06930
C1350       C  0.28763254  0.61822215  0.95597713     0.13930
C1351       C  0.31706684  0.61280680  0.96370499    -0.23760
H1352       H  0.29114693  0.59513572  0.91836089     0.15220
H1353       H  0.22798780  0.64527697  0.98031818     0.15240
C1354       C  0.20116335  0.62405389  0.93660910    -0.23710
H1355       H  0.32052696  0.59031927  0.96472753     0.05460
H1356       H  0.32218705  0.62122129  0.98425614     0.08680
H1357       H  0.33103165  0.62172502  0.94800772     0.08680
H1358       H  0.19225487  0.60318003  0.93437143     0.08670
H1359       H  0.19818598  0.63556194  0.91713741     0.08670
H1360       H  0.18975347  0.63489227  0.95311709     0.05440
C1361       C  0.29378707  0.71635166  0.93574907    -0.20360
C1362       C  0.32139786  0.71208293  0.92839886    -0.06930
C1363       C  0.33711351  0.69343125  0.94442568     0.13940
C1364       C  0.32426008  0.67919461  0.96617603    -0.20410
C1365       C  0.29567361  0.68044509  0.97024342    -0.06930
C1366       C  0.28026003  0.69938411  0.95445505     0.13930
C1367       C  0.24935464  0.70166299  0.95506243    -0.23760
H1368       H  0.28168158  0.73139203  0.92465538     0.15220
H1369       H  0.33631855  0.66539919  0.97872008     0.15240
C1370       C  0.36659627  0.68658596  0.93792534    -0.23710
H1371       H  0.24339444  0.72310273  0.95993492     0.05460
H1372       H  0.23962555  0.68828326  0.97040104     0.08680
H1373       H  0.24086681  0.69616346  0.93457642     0.08680
H1374       H  0.38014758  0.70408423  0.94327990     0.08670
H1375       H  0.36872936  0.68116784  0.91585994     0.08670
H1376       H  0.37392448  0.66874737  0.95009176     0.05440
C1377       C  0.90913482  0.25674249  0.62782323    -0.20360
C1378       C  0.90128540  0.23436197  0.64422256    -0.06930
C1379       C  0.91713788  0.22786761  0.66764837     0.13940
C1380       C  0.93719984  0.24639818  0.67658062    -0.20410
C1381       C  0.94229083  0.27098695  0.66244658    -0.06930
C1382       C  0.93008467  0.27476260  0.63632519     0.13930
C1383       C  0.93956390  0.29683232  0.61691691    -0.23760
H1384       H  0.89793759  0.26096676  0.60902638     0.15220
H1385       H  0.94815209  0.24181673  0.69529512     0.15240
C1386       C  0.91295372  0.20194897  0.68405084    -0.23710
H1387       H  0.92788848  0.29634687  0.59728513     0.05460
H1388       H  0.96150176  0.29341982  0.61189693     0.08680
H1389       H  0.93698060  0.31739932  0.62584526     0.08680
H1390       H  0.89778369  0.18784341  0.67449983     0.08670
H1391       H  0.90591202  0.20720158  0.70511129     0.08670
H1392       H  0.93273715  0.19070424  0.68550509     0.05440
C1393       C  0.92520164  0.33410905  0.68203627    -0.20360
C1394       C  0.93730217  0.31128250  0.69491859    -0.06930
C1395       C  0.92718771  0.30310562  0.72102670     0.13940
C1396       C  0.90425865  0.31639756  0.73212171    -0.20410
C1397       C  0.89060527  0.33719850  0.71773962    -0.06930
C1398       C  0.90167208  0.34682106  0.69279234     0.13930
C1399       C  0.88765519  0.36904343  0.67648256    -0.23760
H1400       H  0.93313195  0.34122748  0.66264067     0.15220
H1401       H  0.89585284  0.30927293  0.75151435     0.15240
C1402       C  0.93902773  0.28001507  0.73764528    -0.23710
H1403       H  0.89836911  0.37310865  0.65673813     0.05460
H1404       H  0.88750270  0.38842760  0.68840871     0.08680
H1405       H  0.86618634  0.36282723  0.67170389     0.08680
H1406       H  0.94567396  0.28783548  0.75805002     0.08670
H1407       H  0.95693997  0.27068011  0.72782817     0.08670
H1408       H  0.92321365  0.26381081  0.74063087     0.05440
C1409       C  0.59974439  0.26992780  0.93802324    -0.20360
C1410       C  0.61262563  0.25067378  0.92083780    -0.06930
C1411       C  0.63767348  0.23875288  0.92948970     0.13940
C1412       C  0.65125988  0.24952371  0.95235034    -0.20410
C1413       C  0.63957670  0.27022316  0.96858282    -0.06930
C1414       C  0.61268122  0.27938701  0.96224806     0.13930
C1415       C  0.59768442  0.29925254  0.98056072    -0.23760
H1416       H  0.58004090  0.27832860  0.93194985     0.15220
H1417       H  0.67178042  0.24224777  0.95685470     0.15240
C1418       C  0.65099498  0.21492275  0.91487786    -0.23710
H1419       H  0.57786122  0.30579750  0.97132376     0.05460
H1420       H  0.61013206  0.31785596  0.98459927     0.08680
H1421       H  0.59291106  0.28909448  0.00035250     0.08680
H1422       H  0.67082207  0.22160769  0.90572293     0.08670
H1423       H  0.63783842  0.20599924  0.89853509     0.08670
H1424       H  0.65506929  0.19825749  0.92989886     0.05440
C1425       C  0.72072056  0.31098068  0.94443152    -0.20360
C1426       C  0.70815589  0.33122289  0.92839497    -0.06930
C1427       C  0.68138521  0.34003224  0.93501204     0.13940
C1428       C  0.66704363  0.32673214  0.95618810    -0.20410
C1429       C  0.67834592  0.30412970  0.97011610    -0.06930
C1430       C  0.70599038  0.29673122  0.96462112     0.13930
C1431       C  0.71993182  0.27245373  0.97744340    -0.23760
H1432       H  0.74130532  0.30426925  0.93913221     0.15220
H1433       H  0.64611499  0.33275861  0.96037486     0.15240
C1434       C  0.66713821  0.36192676  0.91844610    -0.23710
H1435       H  0.73100564  0.26045603  0.96153343     0.05460
H1436       H  0.70508232  0.25826057  0.98683540     0.08680
H1437       H  0.73502720  0.27967681  0.99299596     0.08680
H1438       H  0.66576876  0.35555215  0.89656921     0.08670
H1439       H  0.67881770  0.38145354  0.91992537     0.08670
H1440       H  0.64593061  0.36576908  0.92597714     0.05440
C1441       C  0.00175485  0.64713877  0.72811260    -0.20360
C1442       C  0.00146133  0.63884435  0.70042236    -0.06930
C1443       C  0.02082819  0.61911935  0.69148261     0.13940
C1444       C  0.04121612  0.61003496  0.70964152    -0.20410
C1445       C  0.04280174  0.62011531  0.73652644    -0.06930
C1446       C  0.02234610  0.63814458  0.74623096     0.13930
C1447       C  0.02272581  0.64849421  0.77540611    -0.23760
H1448       H  0.98721127  0.66243417  0.73502250     0.15220
H1449       H  0.05682228  0.59594220  0.70234225     0.15240
C1450       C  0.02113423  0.60773439  0.66277297    -0.23710
H1451       H  0.00488185  0.66200061  0.77975116     0.05460
H1452       H  0.04177018  0.66047672  0.77927005     0.08680
H1453       H  0.02190674  0.63085041  0.78981710     0.08680
H1454       H  0.03996334  0.61470887  0.65190295     0.08670
H1455       H  0.00286212  0.61391392  0.65090410     0.08670
H1456       H  0.02098155  0.58496738  0.66362369     0.05440
C1457       C  0.01810414  0.69559469  0.68029018    -0.20360
C1458       C  0.00319309  0.67629324  0.66478411    -0.06930
C1459       C  0.00914036  0.67377070  0.63633860     0.13940
C1460       C  0.03236702  0.68727168  0.62549996    -0.20410
C1461       C  0.04921790  0.70373103  0.64220017    -0.06930
C1462       C  0.04024751  0.71008078  0.66907815     0.13930
C1463       C  0.05448143  0.73110096  0.68686875    -0.23760
H1464       H  0.01361089  0.69831694  0.70190459     0.15220
H1465       H  0.03865091  0.68296757  0.60456262     0.15240
C1466       C  0.99271796  0.65594135  0.61713054    -0.23710
H1467       H  0.03927781  0.74660264  0.69377502     0.05460
H1468       H  0.07099016  0.74219450  0.67569756     0.08680
H1469       H  0.06349309  0.72096326  0.70521965     0.08680
H1470       H  0.98389065  0.66878921  0.60048756     0.08670
H1471       H  0.97562623  0.64529490  0.62756120     0.08670
H1472       H  0.00627603  0.64020105  0.60777831     0.05440
C1473       C  0.68600464  0.02098996  0.67915123    -0.20360
C1474       C  0.66583080  0.00697685  0.66392377    -0.06930
C1475       C  0.66180208  0.01415594  0.63601561     0.13940
C1476       C  0.67527619  0.03744576  0.62543888    -0.20410
C1477       C  0.69328625  0.05303874  0.64182879    -0.06930
C1478       C  0.70049877  0.04314604  0.66817851     0.13930
C1479       C  0.72314697  0.05554581  0.68543019    -0.23760
H1480       H  0.69008664  0.01496907  0.70020904     0.15220
H1481       H  0.67047371  0.04430608  0.60479279     0.15240
C1482       C  0.64291879  0.99857733  0.61711311    -0.23710
H1483       H  0.73786908  0.03923303  0.69147804     0.05460
H1484       H  0.71427111  0.06475820  0.70431631     0.08680
H1485       H  0.73512763  0.07138625  0.67427924     0.08680
H1486       H  0.63308406  0.98084267  0.62727475     0.08670
H1487       H  0.65485536  0.99072510  0.59933875     0.08670
H1488       H  0.62653059  0.01240060  0.60938096     0.05440
C1489       C  0.64011015  0.00759264  0.72770360    -0.20360
C1490       C  0.62993792  0.00572997  0.70070560    -0.06930
C1491       C  0.60856041  0.02357226  0.69240139     0.13940
C1492       C  0.59986875  0.04436418  0.71020326    -0.20410
C1493       C  0.61176912  0.04756031  0.73620351    -0.06930
C1494       C  0.63118210  0.02825725  0.74560453     0.13930
C1495       C  0.64314470  0.03002581  0.77414527    -0.23760
H1496       H  0.65676224  0.99436223  0.73407395     0.15220
H1497       H  0.58478168  0.05913349  0.70313850     0.15240
C1498       C  0.59509260  0.02187330  0.66462260    -0.23710
H1499       H  0.65743494  0.01278713  0.77838503     0.05460
H1500       H  0.62629490  0.02920323  0.78951548     0.08680
H1501       H  0.65478160  0.04945113  0.77673512     0.08680
H1502       H  0.60095500  0.00309067  0.65343670     0.08670
H1503       H  0.60065667  0.04017618  0.65221278     0.08670
H1504       H  0.57240699  0.02113667  0.66714530     0.05440
C1505       C  0.61951233  0.67579692  0.03499554    -0.20360
C1506       C  0.64640862  0.68567397  0.03075938    -0.06930
C1507       C  0.65679431  0.70611209  0.04868797     0.13940
C1508       C  0.64113020  0.71451090  0.07112760    -0.20410
C1509       C  0.61592416  0.70207326  0.07747742    -0.06930
C1510       C  0.60439104  0.68313881  0.05861393     0.13930
C1511       C  0.57748835  0.66887351  0.06429798    -0.23760
H1512       H  0.61154324  0.66008502  0.02135761     0.15220
H1513       H  0.64970850  0.72966440  0.08507949     0.15240
C1514       C  0.68492411  0.71867853  0.04594104    -0.23710
H1515       H  0.57285893  0.65301032  0.04855423     0.05460
H1516       H  0.56039882  0.68385921  0.06392962     0.08680
H1517       H  0.57829252  0.65860083  0.08465271     0.08680
H1518       H  0.68318225  0.74139203  0.04578303     0.08670
H1519       H  0.69504852  0.71284203  0.02669603     0.08670
H1520       H  0.69802143  0.71234948  0.06353977     0.05440
C1521       C  0.72208973  0.63471169  0.05580228    -0.20360
C1522       C  0.70573909  0.61915077  0.07342716    -0.06930
C1523       C  0.67771200  0.61537719  0.06739734     0.13940
C1524       C  0.66625857  0.62924643  0.04487250    -0.20410
C1525       C  0.68180888  0.64792763  0.02902208    -0.06930
C1526       C  0.71077822  0.64898816  0.03352094     0.13930
C1527       C  0.73074448  0.66400754  0.01542406    -0.23760
H1528       H  0.74383328  0.63670351  0.06042917     0.15220
H1529       H  0.64444834  0.62706515  0.04097350     0.15240
C1530       C  0.65955622  0.59835989  0.08581597    -0.23710
H1531       H  0.75144273  0.66564056  0.02498499     0.05460
H1532       H  0.72413509  0.68503252  0.01119743     0.08680
H1533       H  0.73365107  0.65219496  0.99628539     0.08680
H1534       H  0.65966014  0.60701625  0.10693642     0.08670
H1535       H  0.66725490  0.57695250  0.08647828     0.08670
H1536       H  0.63794326  0.59792185  0.07839359     0.05440
C1537       C  0.59760709  0.91504010  0.71879867    -0.20360
C1538       C  0.61496658  0.90533185  0.73976011    -0.06930
C1539       C  0.63990039  0.91937123  0.74501627     0.13940
C1540       C  0.64936336  0.93856016  0.72597973    -0.20410
C1541       C  0.63339606  0.94628992  0.70328934    -0.06930
C1542       C  0.60610283  0.93637186  0.70124203     0.13930
C1543       C  0.58560847  0.94866840  0.68160190    -0.23760
H1544       H  0.57781305  0.90534156  0.71548249     0.15220
H1545       H  0.66952573  0.94732358  0.72898162     0.15240
C1546       C  0.65720525  0.91433015  0.77027062    -0.23710
H1547       H  0.56555607  0.93774018  0.68237192     0.05460
H1548       H  0.59292420  0.94814241  0.66017795     0.08680
H1549       H  0.58182067  0.97024819  0.68756372     0.08680
H1550       H  0.67736231  0.90555708  0.76420381     0.08670
H1551       H  0.64709012  0.90035349  0.78515640     0.08670
H1552       H  0.66080774  0.93408545  0.78108506     0.05440
C1553       C  0.70347825  0.91487588  0.65487488    -0.20360
C1554       C  0.68779614  0.89735966  0.63819380    -0.06930
C1555       C  0.66074208  0.90467827  0.63120583     0.13940
C1556       C  0.64922246  0.92827584  0.64287228    -0.20410
C1557       C  0.66394373  0.94482212  0.66150123    -0.06930
C1558       C  0.69211280  0.93885528  0.66619807     0.13930
C1559       C  0.71066271  0.95758625  0.68245127    -0.23760
H1560       H  0.72458640  0.90939828  0.65948724     0.15220
H1561       H  0.62801324  0.93278679  0.63850701     0.15240
C1562       C  0.64343228  0.88666284  0.61285809    -0.23710
H1563       H  0.73081543  0.94783746  0.68686752     0.05460
H1564       H  0.70144664  0.96354317  0.70228293     0.08680
H1565       H  0.71492541  0.97619362  0.67012834     0.08680
H1566       H  0.64150040  0.86588881  0.62203288     0.08670
H1567       H  0.65318333  0.88498441  0.59231027     0.08670
H1568       H  0.62241237  0.89506850  0.60999780     0.05440
C1569       C  0.91793175  0.72214157  0.66401981    -0.20360
C1570       C  0.90045468  0.71217633  0.64337990    -0.06930
C1571       C  0.90506335  0.68589007  0.63220341     0.13940
C1572       C  0.92595700  0.66952635  0.64326233    -0.20410
C1573       C  0.94221394  0.67857875  0.66537364    -0.06930
C1574       C  0.93843807  0.70557261  0.67553638     0.13930
C1575       C  0.95383404  0.71696670  0.69988117    -0.23760
H1576       H  0.91406880  0.74224560  0.67274802     0.15220
H1577       H  0.92818966  0.64880373  0.63579472     0.15240
C1578       C  0.88663519  0.67414075  0.61016401    -0.23710
H1579       H  0.96600359  0.73515061  0.69341565     0.05460
H1580       H  0.96787936  0.70195059  0.70932337     0.08680
H1581       H  0.93898395  0.72330446  0.71600148     0.08680
H1582       H  0.88809198  0.68678138  0.59125993     0.08670
H1583       H  0.86499404  0.67376073  0.61742766     0.08670
H1584       H  0.89252308  0.65283437  0.60465787     0.05440
C1585       C  0.90669402  0.60278786  0.70193930    -0.20360
C1586       C  0.89282188  0.61672786  0.72299564    -0.06930
C1587       C  0.90502366  0.64041893  0.73460474     0.13940
C1588       C  0.92842451  0.65177994  0.72218421    -0.20410
C1589       C  0.94052164  0.63963644  0.69901688    -0.06930
C1590       C  0.93078629  0.61372387  0.69015853     0.13930
C1591       C  0.94559646  0.59756288  0.66840825    -0.23760
H1592       H  0.89801624  0.58391280  0.69391548     0.15220
H1593       H  0.93638602  0.67106866  0.72977546     0.15240
C1594       C  0.89347638  0.65384150  0.76004236    -0.23710
H1595       H  0.93466961  0.57813871  0.66347847     0.05460
H1596       H  0.96631480  0.59212626  0.67613207     0.08680
H1597       H  0.94763553  0.60944418  0.64916843     0.08680
H1598       H  0.89210390  0.63850327  0.77686395     0.08670
H1599       H  0.87280336  0.66244308  0.75602179     0.08670
H1600       H  0.90676327  0.67096380  0.76726435     0.05440
C1601       C  0.72064172  0.64936461  0.93595442    -0.20360
C1602       C  0.71179083  0.62324294  0.92755407    -0.06930
C1603       C  0.68979835  0.61057080  0.94182960     0.13940
C1604       C  0.67665322  0.62512462  0.96308798    -0.20410
C1605       C  0.68323571  0.65272797  0.96845438    -0.06930
C1606       C  0.70539805  0.66501778  0.95429002     0.13930
C1607       C  0.71361429  0.69464335  0.95745616    -0.23760
H1608       H  0.73789968  0.65899278  0.92557802     0.15220
H1609       H  0.65967272  0.61571725  0.97401978     0.15240
C1610       C  0.67865616  0.58291176  0.93360003    -0.23710
H1611       H  0.70954038  0.70579784  0.93797994     0.05460
H1612       H  0.73591921  0.69609492  0.96221420     0.08680
H1613       H  0.70262353  0.70486793  0.97430713     0.08680
H1614       H  0.69424131  0.56684150  0.93755726     0.08670
H1615       H  0.67292485  0.58300162  0.91149631     0.08670
H1616       H  0.66000365  0.57739846  0.94557977     0.05440
C1617       C  0.62705252  0.71742478  0.93617446    -0.20360
C1618       C  0.61176338  0.69810962  0.92129360    -0.06930
C1619       C  0.60827445  0.67155193  0.93210211     0.13940
C1620       C  0.62265431  0.66406781  0.95603320    -0.20410
C1621       C  0.64099619  0.68232059  0.96912531    -0.06930
C1622       C  0.64124452  0.71007922  0.96024016     0.13930
C1623       C  0.65603883  0.73260698  0.97519039    -0.23760
H1624       H  0.62877418  0.73820274  0.92837208     0.15220
H1625       H  0.62124286  0.64311380  0.96326020     0.15240
C1626       C  0.59059475  0.65072825  0.91752627    -0.23710
H1627       H  0.64114816  0.74884230  0.98098008     0.05460
H1628       H  0.67205324  0.74176585  0.96174280     0.08680
H1629       H  0.66560191  0.72524280  0.99419779     0.08680
H1630       H  0.59867417  0.64708231  0.89650386     0.08670
H1631       H  0.56917818  0.65846102  0.91606577     0.08670
H1632       H  0.59018800  0.63080626  0.92859934     0.05440
C1633       C  0.54117404  0.81012615  0.76910814    -0.20360
C1634       C  0.55004847  0.83503439  0.78056562    -0.06930
C1635       C  0.53337565  0.84796232  0.80056418     0.13940
C1636       C  0.50934974  0.83461637  0.80975421    -0.20410
C1637       C  0.50254504  0.80806890  0.80072560    -0.06930
C1638       C  0.51798777  0.79634935  0.77907193     0.13930
C1639       C  0.51130647  0.76899076  0.76638398    -0.23760
H1640       H  0.55337461  0.80052540  0.75313056     0.15220
H1641       H  0.49707096  0.84405715  0.82567454     0.15240
C1642       C  0.54181297  0.87455147  0.81396991    -0.23710
H1643       H  0.50874865  0.77143747  0.74382766     0.05460
H1644       H  0.49206249  0.76015003  0.77433101     0.08680
H1645       H  0.52831846  0.75436576  0.77041424     0.08680
H1646       H  0.54154073  0.89144081  0.79874151     0.08670
H1647       H  0.56274564  0.87255933  0.82288297     0.08670
H1648       H  0.52756959  0.88033312  0.83083253     0.05440
C1649       C  0.50055811  0.74363001  0.82908388    -0.20360
C1650       C  0.49861191  0.77123426  0.83706955    -0.06930
C1651       C  0.51559999  0.78078940  0.85868588     0.13940
C1652       C  0.53712230  0.76420602  0.86822613    -0.20410
C1653       C  0.54137400  0.73796571  0.85728246    -0.06930
C1654       C  0.52192899  0.72692089  0.83875945     0.13930
C1655       C  0.52423517  0.69783608  0.82853102    -0.23760
H1656       H  0.48678549  0.73561644  0.81364031     0.15220
H1657       H  0.55148537  0.77235173  0.88323436     0.15240
C1658       C  0.51169844  0.80843548  0.87181657    -0.23710
H1659       H  0.50683560  0.69227981  0.81478266     0.05460
H1660       H  0.52410523  0.68352049  0.84628340     0.08680
H1661       H  0.54356316  0.69509936  0.81677420     0.08680
H1662       H  0.49256150  0.81852760  0.86478817     0.08670
H1663       H  0.52962860  0.82181670  0.86722575     0.08670
H1664       H  0.50993133  0.80592632  0.89443450     0.05440
C1665       C  0.43118751  0.78478820  0.86127143    -0.20360
C1666       C  0.43826698  0.77514489  0.83496256    -0.06930
C1667       C  0.42375288  0.75245050  0.82400706     0.13940
C1668       C  0.40112092  0.74198202  0.83822069    -0.20410
C1669       C  0.39156991  0.75424292  0.86248777    -0.06930
C1670       C  0.40745036  0.77519610  0.87485128     0.13930
C1671       C  0.39845026  0.78891919  0.90105561    -0.23760
H1672       H  0.44292209  0.80140124  0.87025625     0.15220
H1673       H  0.38944430  0.72530055  0.82909190     0.15240
C1674       C  0.43055498  0.73932336  0.79686405    -0.23710
H1675       H  0.41231625  0.80616791  0.90670532     0.05460
H1676       H  0.39877640  0.77399516  0.91823865     0.08680
H1677       H  0.37736656  0.79726407  0.89856906     0.08680
H1678       H  0.44915737  0.74799562  0.78739182     0.08670
H1679       H  0.41309313  0.74200185  0.78238043     0.08670
H1680       H  0.43426473  0.71706229  0.79993469     0.05440
C1681       C  0.43977523  0.80162012  0.76956401    -0.20360
C1682       C  0.44159230  0.81038687  0.79700621    -0.06930
C1683       C  0.42388322  0.83155006  0.80601130     0.13940
C1684       C  0.40200430  0.83987848  0.78915654    -0.20410
C1685       C  0.39804731  0.82820631  0.76312163    -0.06930
C1686       C  0.41801245  0.81005352  0.75258443     0.13930
C1687       C  0.41599666  0.79904711  0.72370010    -0.23760
H1688       H  0.45408574  0.78655481  0.76192314     0.15220
H1689       H  0.38734327  0.85475195  0.79682518     0.15240
C1690       C  0.42755771  0.84563186  0.83327649    -0.23710
H1691       H  0.43378440  0.78576522  0.71851913     0.05460
H1692       H  0.41559261  0.81637870  0.70889608     0.08680
H1693       H  0.39701720  0.78661720  0.72125000     0.08680
H1694       H  0.44700334  0.83961830  0.84348233     0.08670
H1695       H  0.40988283  0.84083805  0.84690742     0.08670
H1696       H  0.42857125  0.86816420  0.83006127     0.05440
C1697       C  0.77404189  0.51260523  0.85284533    -0.20360
C1698       C  0.76206161  0.50676811  0.82713813    -0.06930
C1699       C  0.73985095  0.52311689  0.81794924     0.13940
C1700       C  0.73158469  0.54560918  0.83350168    -0.20410
C1701       C  0.74577340  0.55355888  0.85727534    -0.06930
C1702       C  0.76660874  0.53627738  0.86777822     0.13930
C1703       C  0.78246240  0.54374836  0.89330572    -0.23760
H1704       H  0.79104420  0.50011009  0.85991262     0.15220
H1705       H  0.71506306  0.55842153  0.82578302     0.15240
C1706       C  0.72483937  0.51833449  0.79132742    -0.23710
H1707       H  0.79918971  0.52884534  0.89751317     0.05460
H1708       H  0.76856815  0.54375833  0.91135724     0.08680
H1709       H  0.79190934  0.56436292  0.89086279     0.08680
H1710       H  0.73077813  0.49901133  0.78142578     0.08670
H1711       H  0.72887642  0.53560089  0.77698607     0.08670
H1712       H  0.70238659  0.51701125  0.79530495     0.05440
C1713       C  0.80764692  0.53044016  0.74738641    -0.20360
C1714       C  0.82615274  0.54713162  0.76174568    -0.06930
C1715       C  0.83247600  0.54091234  0.78931232     0.13940
C1716       C  0.81830849  0.51947610  0.80245712    -0.20410
C1717       C  0.79699900  0.50495134  0.78916764    -0.06930
C1718       C  0.79275495  0.50968403  0.76064691     0.13930
C1719       C  0.77198880  0.49476267  0.74342884    -0.23760
H1720       H  0.80304338  0.53521664  0.72608879     0.15220
H1721       H  0.82253535  0.51541294  0.82392389     0.15240
C1722       C  0.85256635  0.55813619  0.80545161    -0.23710
H1723       H  0.75699592  0.50955263  0.73470476     0.05460
H1724       H  0.76056818  0.47958244  0.75528454     0.08680
H1725       H  0.78255050  0.48396075  0.72634826     0.08680
H1726       H  0.84551546  0.57978218  0.80599009     0.08670
H1727       H  0.87315804  0.55718540  0.79568581     0.08670
H1728       H  0.85460732  0.55084621  0.82699256     0.05440
C1729       C  0.82128205  0.44158138  0.79078992    -0.20360
C1730       C  0.79273311  0.44496393  0.78742386    -0.06930
C1731       C  0.77898765  0.42920087  0.76719763     0.13940
C1732       C  0.79402937  0.41135678  0.75078544    -0.20410
C1733       C  0.82124388  0.40440355  0.75731560    -0.06930
C1734       C  0.83546506  0.42041357  0.77710055     0.13930
C1735       C  0.86458322  0.41416067  0.78555723    -0.23760
H1736       H  0.83184619  0.45366661  0.80626202     0.15220
H1737       H  0.78318491  0.39980981  0.73505254     0.15240
C1738       C  0.74827598  0.42885752  0.76324921    -0.23710
H1739       H  0.87135691  0.42726027  0.80299757     0.05460
H1740       H  0.87877964  0.41820410  0.76821605     0.08680
H1741       H  0.86625969  0.39243208  0.79218905     0.08680
H1742       H  0.73775003  0.44379435  0.77635152     0.08670
H1743       H  0.74010375  0.40812894  0.76813154     0.08670
H1744       H  0.74320399  0.43383749  0.74154953     0.05440
C1745       C  0.78562514  0.42740807  0.84522428    -0.20360
C1746       C  0.76626529  0.44447563  0.83206875    -0.06930
C1747       C  0.73787243  0.43924032  0.83700922     0.13940
C1748       C  0.73010605  0.41466095  0.85015823    -0.20410
C1749       C  0.74979295  0.39591542  0.85944063    -0.06930
C1750       C  0.77779625  0.40299251  0.85830103     0.13930
C1751       C  0.79947061  0.38418068  0.86982836    -0.23760
H1752       H  0.80731846  0.43198339  0.84332215     0.15220
H1753       H  0.70851431  0.40956694  0.85248184     0.15240
C1754       C  0.71545993  0.45921426  0.82982347    -0.23710
H1755       H  0.82046302  0.39287218  0.86737831     0.05460
H1756       H  0.79880168  0.36412829  0.85902284     0.08680
H1757       H  0.79568956  0.38086417  0.89209202     0.08680
H1758       H  0.71548286  0.46438517  0.80786321     0.08670
H1759       H  0.71787911  0.47798726  0.84239824     0.08670
H1760       H  0.69474671  0.45081264  0.83456397     0.05440
C1761       C  0.83545657  0.54334110  0.21345725    -0.20360
C1762       C  0.82620865  0.54584039  0.24055337    -0.06930
C1763       C  0.80851919  0.52578798  0.25153987     0.13940
C1764       C  0.79805566  0.50532793  0.23421057    -0.20410
C1765       C  0.80447273  0.50470655  0.20606409    -0.06930
C1766       C  0.82533116  0.52257291  0.19626737     0.13930
C1767       C  0.83751326  0.52030944  0.16799935    -0.23760
H1768       H  0.84978264  0.55836514  0.20531137     0.15220
H1769       H  0.78310957  0.49134380  0.24242476     0.15240
C1770       C  0.79981814  0.52668052  0.28124916    -0.23710
H1771       H  0.86029817  0.51984567  0.16955011     0.05460
H1772       H  0.83132991  0.53823230  0.15535253     0.08680
H1773       H  0.83137122  0.50110799  0.15771126     0.08680
H1774       H  0.78834160  0.54585975  0.28550300     0.08670
H1775       H  0.81830313  0.52587496  0.29464854     0.08670
H1776       H  0.78629329  0.50909053  0.28663402     0.05440
C1777       C  0.77625545  0.51335937  0.14242019    -0.20360
C1778       C  0.76757161  0.50629143  0.16904941    -0.06930
C1779       C  0.74465067  0.52019474  0.18038998     0.13940
C1780       C  0.73371079  0.54286220  0.16658123    -0.20410
C1781       C  0.74520809  0.55241750  0.14201350    -0.06930
C1782       C  0.76588903  0.53675808  0.12902846     0.13930
C1783       C  0.77856558  0.54570039  0.10223818    -0.23760
H1784       H  0.79264711  0.50188405  0.13287788     0.15220
H1785       H  0.71707659  0.55436088  0.17589497     0.15240
C1786       C  0.73152580  0.51178519  0.20712058    -0.23710
H1787       H  0.79564026  0.53196322  0.09596969     0.05460
H1788       H  0.78698834  0.56679521  0.10428313     0.08680
H1789       H  0.76291122  0.54523147  0.08565993     0.08680
H1790       H  0.74612173  0.51384065  0.22433820     0.08670
H1791       H  0.72388834  0.49047695  0.20553871     0.08670
H1792       H  0.71353007  0.52481847  0.21222038     0.05440
C1793       C  0.74301276  0.43691898  0.17207764    -0.20360
C1794       C  0.76984885  0.44504094  0.16520593    -0.06930
C1795       C  0.78319737  0.43155761  0.14310911     0.13940
C1796       C  0.77122657  0.40804235  0.13147359    -0.20410
C1797       C  0.74610606  0.39790802  0.14114663    -0.06930
C1798       C  0.73103871  0.41339253  0.16047202     0.13930
C1799       C  0.70264974  0.40470761  0.16943634    -0.23760
H1800       H  0.73202625  0.44765994  0.18798018     0.15220
H1801       H  0.78233190  0.39667476  0.11588261     0.15240
C1802       C  0.81040667  0.44086160  0.13178543    -0.23710
H1803       H  0.69345616  0.41967547  0.18397152     0.05460
H1804       H  0.70344374  0.38453717  0.17994003     0.08680
H1805       H  0.68897709  0.40317269  0.15120118     0.08680
H1806       H  0.82600979  0.42452088  0.13471752     0.08670
H1807       H  0.81780600  0.45985439  0.14168149     0.08670
H1808       H  0.80825088  0.44511855  0.10946237     0.05440
C1809       C  0.82738579  0.43464425  0.19946824    -0.20360
C1810       C  0.80122991  0.44459612  0.20644075    -0.06930
C1811       C  0.78834872  0.43467037  0.23059035     0.13940
C1812       C  0.80146323  0.41468529  0.24631728    -0.20410
C1813       C  0.82579957  0.40215203  0.23742308    -0.06930
C1814       C  0.83940739  0.41276837  0.21397871     0.13930
C1815       C  0.86521320  0.39992630  0.20272315    -0.23760
H1816       H  0.83764520  0.44268262  0.18149166     0.15220
H1817       H  0.79113933  0.40688172  0.26448535     0.15240
C1818       C  0.76007151  0.44312914  0.23982506    -0.23710
H1819       H  0.87142755  0.40938464  0.18289413     0.05460
H1820       H  0.86182608  0.37769361  0.19901814     0.08680
H1821       H  0.88248358  0.40289906  0.21729912     0.08680
H1822       H  0.74585741  0.42530414  0.23858357     0.08670
H1823       H  0.75160098  0.45995309  0.22740431     0.08670
H1824       H  0.76093206  0.45036328  0.26146598     0.05440
C1825       C  0.53227766  0.72768195  0.16871709    -0.20360
C1826       C  0.54329920  0.73716197  0.14386875    -0.06930
C1827       C  0.53065627  0.75976599  0.13064276     0.13940
C1828       C  0.50852187  0.77304672  0.14371343    -0.20410
C1829       C  0.50050353  0.76589066  0.17052517    -0.06930
C1830       C  0.51268831  0.74268030  0.18304393     0.13930
C1831       C  0.50679374  0.73349159  0.21195650    -0.23760
H1832       H  0.54135842  0.70993253  0.17864651     0.15220
H1833       H  0.49887910  0.79034745  0.13375763     0.15240
C1834       C  0.54144885  0.77140535  0.10406696    -0.23710
H1835       H  0.50085092  0.71147842  0.21201320     0.05460
H1836       H  0.48985109  0.74497704  0.22128245     0.08680
H1837       H  0.52548875  0.73614619  0.22483380     0.08680
H1838       H  0.53816191  0.75656234  0.08712338     0.08670
H1839       H  0.56367526  0.77629089  0.10608991     0.08670
H1840       H  0.53062891  0.79061099  0.09829196     0.05440
C1841       C  0.51071931  0.80064110  0.22857911    -0.20360
C1842       C  0.50099105  0.80675038  0.20211093    -0.06930
C1843       C  0.51304210  0.82905724  0.18773688     0.13940
C1844       C  0.53695576  0.84156781  0.19813186    -0.20410
C1845       C  0.54872243  0.83275569  0.22286377    -0.06930
C1846       C  0.53455735  0.81324271  0.23905496     0.13930
C1847       C  0.54495744  0.80521803  0.26711273    -0.23760
H1848       H  0.50080761  0.78481288  0.24050140     0.15220
H1849       H  0.54718499  0.85736982  0.18620992     0.15240
C1850       C  0.50154561  0.83978898  0.16110232    -0.23710
H1851       H  0.53098129  0.79032531  0.27732247     0.05460
H1852       H  0.54647120  0.82373294  0.28033696     0.08680
H1853       H  0.56551157  0.79554657  0.26545459     0.08680
H1854       H  0.48217032  0.82938749  0.15512151     0.08670
H1855       H  0.51689123  0.83712529  0.14442718     0.08670
H1856       H  0.49693005  0.86197768  0.16331857     0.05440
C1857       C  0.40686442  0.80383937  0.24567428    -0.20360
C1858       C  0.39641625  0.82843182  0.23535468    -0.06930
C1859       C  0.40990419  0.84135441  0.21307710     0.13940
C1860       C  0.43241854  0.82817999  0.20067347    -0.20410
C1861       C  0.44033129  0.80157618  0.20857371    -0.06930
C1862       C  0.42810632  0.78993072  0.23232033     0.13930
C1863       C  0.43597779  0.76228500  0.24328669    -0.23760
H1864       H  0.39689841  0.79446710  0.26327513     0.15220
H1865       H  0.44235430  0.83777086  0.18326838     0.15240
C1866       C  0.39940930  0.86774136  0.20083773    -0.23710
H1867       H  0.42499022  0.75729672  0.26267086     0.05460
H1868       H  0.45816188  0.76190201  0.24808452     0.08680
H1869       H  0.43008428  0.74636507  0.22833460     0.08680
H1870       H  0.40144708  0.88470488  0.21586889     0.08670
H1871       H  0.37749494  0.86533693  0.19482602     0.08670
H1872       H  0.41117992  0.87368168  0.18219484     0.05440
C1873       C  0.42515666  0.79003431  0.14863110    -0.20360
C1874       C  0.43918136  0.77167149  0.16606009    -0.06930
C1875       C  0.43115162  0.74363706  0.16559256     0.13940
C1876       C  0.40656110  0.73619936  0.15234058    -0.20410
C1877       C  0.39063561  0.75567252  0.13854634    -0.06930
C1878       C  0.40064690  0.78253237  0.13539037     0.13930
C1879       C  0.38473754  0.80354532  0.11924553    -0.23760
H1880       H  0.43220652  0.81100463  0.14695343     0.15220
H1881       H  0.39924871  0.71518869  0.15334384     0.15240
C1882       C  0.44853611  0.72102882  0.17725129    -0.23710
H1883       H  0.39542890  0.82370451  0.11887275     0.05460
H1884       H  0.36414854  0.80653197  0.12862092     0.08680
H1885       H  0.38217350  0.79639159  0.09771947     0.08680
H1886       H  0.45374827  0.72473993  0.19886705     0.08670
H1887       H  0.46748430  0.71911406  0.16483160     0.08670
H1888       H  0.43792426  0.70084871  0.17625994     0.05440
C1889       C  0.14099748  0.51600501  0.77522902    -0.20360
C1890       C  0.13186451  0.50428591  0.79993794    -0.06930
C1891       C  0.10771111  0.51480862  0.81237144     0.13940
C1892       C  0.09536700  0.53848681  0.80149185    -0.20410
C1893       C  0.10680288  0.55198672  0.77879681    -0.06930
C1894       C  0.12881025  0.53965390  0.76448535     0.13930
C1895       C  0.14078823  0.55165606  0.73853213    -0.23760
H1896       H  0.15911764  0.50810916  0.76519954     0.15220
H1897       H  0.07809024  0.54767287  0.81211518     0.15240
C1898       C  0.09536187  0.50273490  0.83802161    -0.23710
H1899       H  0.14033817  0.53594857  0.72200160     0.05460
H1900       H  0.16245495  0.55790188  0.74227063     0.08680
H1901       H  0.12922212  0.56971987  0.73096603     0.08680
H1902       H  0.10727530  0.48517817  0.84599700     0.08670
H1903       H  0.07411610  0.49558531  0.83359249     0.08670
H1904       H  0.09455240  0.51859505  0.85438986     0.05440
C1905       C  0.16354767  0.51699365  0.85604240    -0.20360
C1906       C  0.17261197  0.50425397  0.83173120    -0.06930
C1907       C  0.19853986  0.51219082  0.82079564     0.13940
C1908       C  0.21397496  0.53252024  0.83397717    -0.20410
C1909       C  0.20364774  0.54680538  0.85659915    -0.06930
C1910       C  0.17837386  0.53858401  0.86826303     0.13930
C1911       C  0.16595311  0.55375520  0.89220996    -0.23760
H1912       H  0.14384176  0.51140611  0.86456433     0.15220
H1913       H  0.23338599  0.53897693  0.82504273     0.15240
C1914       C  0.21017490  0.50170659  0.79427134    -0.23710
H1915       H  0.14531684  0.54557028  0.89762724     0.05460
H1916       H  0.16362597  0.57581102  0.88700454     0.08680
H1917       H  0.17928003  0.55166270  0.91058957     0.08680
H1918       H  0.19635294  0.48738367  0.78401349     0.08670
H1919       H  0.23004350  0.49121848  0.79821784     0.08670
H1920       H  0.21370057  0.51909959  0.77993939     0.05440
C1921       C  0.19773280  0.43682981  0.81775139    -0.20360
C1922       C  0.17328696  0.44375450  0.83128672    -0.06930
C1923       C  0.16827999  0.43260624  0.85773952     0.13940
C1924       C  0.18563612  0.41185537  0.86780674    -0.20410
C1925       C  0.20846406  0.40301823  0.85262305    -0.06930
C1926       C  0.21598458  0.41758809  0.82866517     0.13930
C1927       C  0.24327464  0.41309801  0.81456998    -0.23760
H1928       H  0.20218095  0.44534974  0.79785083     0.15220
H1929       H  0.18037421  0.40137584  0.88673934     0.15240
C1930       C  0.14462169  0.44185721  0.87533195    -0.23710
H1931       H  0.24654524  0.42804095  0.79763654     0.05460
H1932       H  0.24467223  0.39234540  0.80547804     0.08680
H1933       H  0.26018769  0.41590880  0.82967148     0.08680
H1934       H  0.12487854  0.43530294  0.86635053     0.08670
H1935       H  0.14509807  0.46444729  0.87765179     0.08670
H1936       H  0.14569571  0.43281599  0.89626395     0.05440
C1937       C  0.10879893  0.43213002  0.81197324    -0.20360
C1938       C  0.13251921  0.44241152  0.79898588    -0.06930
C1939       C  0.14106463  0.42965717  0.77422162     0.13940
C1940       C  0.12885383  0.40499356  0.76590123    -0.20410
C1941       C  0.10756907  0.39294956  0.78102585    -0.06930
C1942       C  0.09649024  0.40729554  0.80363989     0.13930
C1943       C  0.07309504  0.39558324  0.82021677    -0.23760
H1944       H  0.10076076  0.44247680  0.82976865     0.15220
H1945       H  0.13653181  0.39463928  0.74772497     0.15240
C1946       C  0.16292812  0.44126212  0.75587809    -0.23710
H1947       H  0.06803515  0.40875262  0.83813932     0.05460
H1948       H  0.07873956  0.37495532  0.82805479     0.08680
H1949       H  0.05437150  0.39392378  0.80729097     0.08680
H1950       H  0.18111817  0.42754152  0.75563879     0.08670
H1951       H  0.16898436  0.46190541  0.76234317     0.08670
H1952       H  0.15479739  0.44317552  0.73462000     0.05440
C1953       C  0.50328032  0.19769189  0.82697726    -0.20360
C1954       C  0.49740356  0.17472644  0.84339034    -0.06930
C1955       C  0.50964584  0.17294453  0.86965093     0.13940
C1956       C  0.53125760  0.19095221  0.87645370    -0.20410
C1957       C  0.53952950  0.21191290  0.85831834    -0.06930
C1958       C  0.52347940  0.21677646  0.83451793     0.13930
C1959       C  0.52739096  0.24154972  0.81637158    -0.23760
H1960       H  0.49285527  0.20010660  0.80742150     0.15220
H1961       H  0.54239545  0.18775569  0.89548639     0.15240
C1962       C  0.50021543  0.15266695  0.89089878    -0.23710
H1963       H  0.50746247  0.25240505  0.81410170     0.05460
H1964       H  0.53455840  0.23498058  0.79573204     0.08680
H1965       H  0.54226082  0.25652229  0.82501651     0.08680
H1966       H  0.48155132  0.14141280  0.88426516     0.08670
H1967       H  0.49472651  0.16381037  0.91002699     0.08670
H1968       H  0.51697498  0.13801035  0.89564060     0.05440
C1969       C  0.51050440  0.14525115  0.78562417    -0.20360
C1970       C  0.50365845  0.13492745  0.81169243    -0.06930
C1971       C  0.51893685  0.11268718  0.82255506     0.13940
C1972       C  0.54193095  0.10302532  0.80831812    -0.20410
C1973       C  0.54998743  0.11482087  0.78343175    -0.06930
C1974       C  0.53360769  0.13549531  0.77137127     0.13930
C1975       C  0.54068835  0.14748338  0.74371410    -0.23760
H1976       H  0.49853106  0.16187991  0.77701428     0.15220
H1977       H  0.55426355  0.08676699  0.81721308     0.15240
C1978       C  0.51154307  0.09835519  0.84889887    -0.23710
H1979       H  0.52521506  0.16281397  0.73698308     0.05460
H1980       H  0.54139171  0.13087616  0.72810641     0.08680
H1981       H  0.56097320  0.15790450  0.74457345     0.08680
H1982       H  0.49198016  0.10571620  0.85760734     0.08670
H1983       H  0.52828579  0.10116710  0.86417108     0.08670
H1984       H  0.50893024  0.07607360  0.84487929     0.05440
C1985       C  0.42616248  0.15908176  0.78876153    -0.20360
C1986       C  0.44260890  0.13903195  0.80093095    -0.06930
C1987       C  0.43876121  0.11151007  0.79227176     0.13940
C1988       C  0.41726056  0.10529628  0.77361051    -0.20410
C1989       C  0.39704492  0.12489774  0.76630873    -0.06930
C1990       C  0.40113169  0.15214351  0.77663737     0.13930
C1991       C  0.37847652  0.17267456  0.78221393    -0.23760
H1992       H  0.42972239  0.18040426  0.79391311     0.15220
H1993       H  0.41587953  0.08455201  0.76609590     0.15240
C1994       C  0.45700891  0.08852485  0.80175870    -0.23710
H1995       H  0.38227807  0.18360785  0.80190187     0.05460
H1996       H  0.35826723  0.16251126  0.78512578     0.08680
H1997       H  0.37794546  0.18861062  0.76591933     0.08680
H1998       H  0.45832902  0.08797201  0.82438875     0.08670
H1999       H  0.47769702  0.09093556  0.79263738     0.08670
H2000       H  0.44912538  0.06822774  0.79495491     0.05440
C2001       C  0.43342993  0.19035731  0.84596846    -0.20360
C2002       C  0.43740122  0.16175478  0.84728236    -0.06930
C2003       C  0.41761129  0.14568228  0.86133663     0.13940
C2004       C  0.39302598  0.15768705  0.87032127    -0.20410
C2005       C  0.38801974  0.18564057  0.86643971    -0.06930
C2006       C  0.40883403  0.20241420  0.85514799     0.13930
C2007       C  0.40438117  0.23273670  0.85129780    -0.23760
H2008       H  0.44810982  0.20295401  0.83503190     0.15220
H2009       H  0.37731583  0.14497343  0.87973118     0.15240
C2010       C  0.42153977  0.11555546  0.86644675    -0.23710
H2011       H  0.42259773  0.24286344  0.84193811     0.05460
H2012       H  0.40042302  0.24251126  0.87152261     0.08680
H2013       H  0.38644646  0.23620268  0.83759023     0.08680
H2014       H  0.44271564  0.10895774  0.86171340     0.08670
H2015       H  0.40668752  0.10356230  0.85389781     0.08670
H2016       H  0.41805600  0.11104885  0.88854896     0.05440
C2017       C  0.81202613  0.75353120  0.53523625    -0.20360
C2018       C  0.81116933  0.78218739  0.53207517    -0.06930
C2019       C  0.82593263  0.79863095  0.55117622     0.13940
C2020       C  0.83689826  0.78666712  0.57490322    -0.20410
C2021       C  0.83430730  0.75858266  0.57978211    -0.06930
C2022       C  0.82286051  0.74152599  0.55920216     0.13930
C2023       C  0.82033236  0.71089632  0.56255756    -0.23760
H2024       H  0.80210838  0.74048274  0.52018909     0.15220
H2025       H  0.84672168  0.79955769  0.59023507     0.15240
C2026       C  0.83041817  0.82893211  0.54753518    -0.23710
H2027       H  0.83126475  0.70050457  0.54546552     0.05460
H2028       H  0.79827909  0.70492492  0.56194323     0.08680
H2029       H  0.82916867  0.70339266  0.58217163     0.08680
H2030       H  0.82314567  0.83636499  0.52745235     0.08670
H2031       H  0.85278013  0.83352449  0.54859181     0.08670
H2032       H  0.81975592  0.84035136  0.56413938     0.05440
C2033       C  0.76609731  0.83592888  0.53439583    -0.20360
C2034       C  0.76576977  0.80742748  0.53007938    -0.06930
C2035       C  0.74578413  0.79148169  0.54402975     0.13940
C2036       C  0.72794345  0.80425169  0.56243680    -0.20410
C2037       C  0.73216925  0.83145731  0.57096870    -0.06930
C2038       C  0.75097968  0.84792093  0.55593913     0.13930
C2039       C  0.75714249  0.87725639  0.56357125    -0.23760
H2040       H  0.78001385  0.84855248  0.52253371     0.15220
H2041       H  0.71267659  0.79175641  0.57285518     0.15240
C2042       C  0.74331602  0.76076258  0.54185282    -0.23710
H2043       H  0.77458326  0.88566720  0.55144707     0.05460
H2044       H  0.76287870  0.87863162  0.58563146     0.08680
H2045       H  0.73907845  0.89035741  0.55922045     0.08680
H2046       H  0.75840886  0.75154086  0.52792089     0.08670
H2047       H  0.72244320  0.75521767  0.53437185     0.08670
H2048       H  0.74647946  0.75143049  0.56244350     0.05440
C2049       C  0.77471481  0.83475564  0.45963855    -0.20360
C2050       C  0.76773774  0.80884894  0.47023410    -0.06930
C2051       C  0.74283276  0.79640201  0.46159570     0.13940
C2052       C  0.72672585  0.80931571  0.44165399    -0.20410
C2053       C  0.73564750  0.83328928  0.42847644    -0.06930
C2054       C  0.75951521  0.84676146  0.43822098     0.13930
C2055       C  0.77031382  0.87249444  0.42483315    -0.23760
H2056       H  0.79315578  0.84486593  0.46683926     0.15220
H2057       H  0.70823599  0.79911854  0.43437552     0.15240
C2058       C  0.73309012  0.76885819  0.47138558    -0.23710
H2059       H  0.79016602  0.87915377  0.43401748     0.05460
H2060       H  0.75544844  0.88947138  0.42759800     0.08680
H2061       H  0.77377076  0.86886422  0.40256699     0.08680
H2062       H  0.71275954  0.77099482  0.48152867     0.08670
H2063       H  0.74735247  0.75954282  0.48602837     0.08670
H2064       H  0.73108056  0.75466874  0.45362194     0.05440
C2065       C  0.80204867  0.75187204  0.46104250    -0.20360
C2066       C  0.80951802  0.77832675  0.46981273    -0.06930
C2067       C  0.83169456  0.79165850  0.45637428     0.13940
C2068       C  0.84324128  0.77986067  0.43272294    -0.20410
C2069       C  0.83326594  0.75503587  0.42218893    -0.06930
C2070       C  0.81347528  0.74012485  0.43735110     0.13930
C2071       C  0.80332198  0.71219541  0.42863745    -0.23760
H2072       H  0.78596191  0.74081863  0.47163809     0.15220
H2073       H  0.85905710  0.79090869  0.42154419     0.15240
C2074       C  0.84321301  0.81866224  0.46583087    -0.23710
H2075       H  0.80670778  0.69733334  0.44559962     0.05460
H2076       H  0.81408998  0.70421616  0.41022975     0.08680
H2077       H  0.78096639  0.71319956  0.42405409     0.08680
H2078       H  0.83320633  0.82595700  0.48475243     0.08670
H2079       H  0.84048612  0.83432648  0.44948551     0.08670
H2080       H  0.86550002  0.81638848  0.47025404     0.05440
C2081       C  0.77828538  0.12068570  0.54622721    -0.20360
C2082       C  0.76702966  0.14207731  0.53036754    -0.06930
C2083       C  0.73907167  0.14930604  0.53470026     0.13940
C2084       C  0.72397358  0.13594156  0.55518756    -0.20410
C2085       C  0.73627672  0.11682666  0.57267661    -0.06930
C2086       C  0.76352017  0.10843850  0.56772592     0.13930
C2087       C  0.77772237  0.08816417  0.58629121    -0.23760
H2088       H  0.79939502  0.11459141  0.54291926     0.15220
H2089       H  0.70303670  0.14241201  0.55930848     0.15240
C2090       C  0.72455686  0.17213920  0.52003745    -0.23710
H2091       H  0.79938041  0.08464430  0.57997948     0.05460
H2092       H  0.76680158  0.06816952  0.58559296     0.08680
H2093       H  0.77786865  0.09597208  0.60774264     0.08680
H2094       H  0.70697582  0.16371566  0.50810197     0.08670
H2095       H  0.73808882  0.18324853  0.50604909     0.08670
H2096       H  0.71666688  0.18720505  0.53521616     0.05440
C2097       C  0.82981163  0.16176422  0.54107161    -0.20360
C2098       C  0.80670951  0.17541438  0.53027331    -0.06930
C2099       C  0.79867505  0.20048788  0.54261793     0.13940
C2100       C  0.81107129  0.20894571  0.56719918    -0.20410
C2101       C  0.83208241  0.19364174  0.57942011    -0.06930
C2102       C  0.84251568  0.17048282  0.56556352     0.13930
C2103       C  0.86552549  0.15369823  0.57763426    -0.23760
H2104       H  0.83630537  0.14263560  0.53202844     0.15220
H2105       H  0.80371928  0.22732136  0.57738197     0.15240
C2106       C  0.77675907  0.21869478  0.53094155    -0.23710
H2107       H  0.87030728  0.13552450  0.56473557     0.05460
H2108       H  0.85965825  0.14632961  0.59841862     0.08680
H2109       H  0.88447270  0.16632966  0.57915173     0.08680
H2110       H  0.75855836  0.21877947  0.54470491     0.08670
H2111       H  0.77069225  0.21233631  0.51015756     0.08670
H2112       H  0.78480138  0.23995751  0.52909317     0.05440
C2113       C  0.79820437  0.19798547  0.45761480    -0.20360
C2114       C  0.80776643  0.17306240  0.46852690    -0.06930
C2115       C  0.83222990  0.16174676  0.45751525     0.13940
C2116       C  0.84375421  0.17313377  0.43359224    -0.20410
C2117       C  0.83166465  0.19577202  0.42068396    -0.06930
C2118       C  0.80980316  0.20946825  0.43387055     0.13930
C2119       C  0.79832886  0.23594310  0.42270044    -0.23760
H2120       H  0.78022021  0.20756116  0.46625122     0.15220
H2121       H  0.86141828  0.16339303  0.42417077     0.15240
C2122       C  0.84661572  0.13759779  0.47009336    -0.23710
H2123       H  0.78215987  0.24450327  0.43632774     0.05460
H2124       H  0.78897057  0.23262676  0.40217859     0.08680
H2125       H  0.81507317  0.25137935  0.42099927     0.08680
H2126       H  0.84839583  0.12087308  0.45470501     0.08670
H2127       H  0.83576979  0.12969778  0.48838089     0.08670
H2128       H  0.86763528  0.14382182  0.47654296     0.05440
C2129       C  0.74522754  0.15798420  0.45807424    -0.20360
C2130       C  0.76623106  0.14187334  0.46949275    -0.06930
C2131       C  0.76696639  0.11352149  0.46282941     0.13940
C2132       C  0.74899351  0.10323655  0.44252750    -0.20410
C2133       C  0.72961378  0.12028951  0.42973834    -0.06930
C2134       C  0.72589473  0.14712329  0.43994725     0.13930
C2135       C  0.70216908  0.16515579  0.43148580    -0.23760
H2136       H  0.74395258  0.17959123  0.46260946     0.15220
H2137       H  0.75153616  0.08240537  0.43518968     0.15240
C2138       C  0.78739259  0.09414899  0.47541330    -0.23710
H2139       H  0.69111306  0.17224498  0.45013784     0.05460
H2140       H  0.68698128  0.15416153  0.41847157     0.08680
H2141       H  0.70997476  0.18335545  0.42015974     0.08680
H2142       H  0.78676032  0.09545047  0.49807059     0.08670
H2143       H  0.80817548  0.09879204  0.46779842     0.08670
H2144       H  0.78291795  0.07252116  0.46972484     0.05440
C2145       C  0.19222406  0.81803610  0.53517947    -0.20360
C2146       C  0.16366389  0.81834672  0.53047938    -0.06930
C2147       C  0.14694667  0.83406999  0.54831288     0.13940
C2148       C  0.15816749  0.84486262  0.57268595    -0.20410
C2149       C  0.18573977  0.84032870  0.57952668    -0.06930
C2150       C  0.20332181  0.82810328  0.55995911     0.13930
C2151       C  0.23336802  0.82384107  0.56615758    -0.23760
H2152       H  0.20529110  0.80640440  0.52153299     0.15220
H2153       H  0.14494544  0.85510486  0.58736150     0.15240
C2154       C  0.11687205  0.83819644  0.54239172    -0.23710
H2155       H  0.24419965  0.81375291  0.54880161     0.05460
H2156       H  0.23566165  0.81064971  0.58462733     0.08680
H2157       H  0.24339691  0.84395363  0.57005909     0.08680
H2158       H  0.10571505  0.81849021  0.54395551     0.08670
H2159       H  0.11428896  0.84680266  0.52141529     0.08670
H2160       H  0.10733576  0.85261754  0.55724865     0.05440
C2161       C  0.10661751  0.74315801  0.55493467    -0.20360
C2162       C  0.12482456  0.73698562  0.57683568    -0.06930
C2163       C  0.15196809  0.74836067  0.57544933     0.13940
C2164       C  0.15991205  0.76281311  0.55214357    -0.20410
C2165       C  0.14095927  0.77210080  0.53269305    -0.06930
C2166       C  0.11367122  0.76207061  0.53410332     0.13930
C2167       C  0.09109829  0.77190995  0.51540456    -0.23760
H2168       H  0.08606030  0.73466457  0.55471491     0.15220
H2169       H  0.18119037  0.76908036  0.55046056     0.15240
C2170       C  0.17250815  0.74931492  0.59888443    -0.23710
H2171       H  0.07336385  0.77892624  0.52791974     0.05460
H2172       H  0.08424500  0.75488314  0.50185266     0.08680
H2173       H  0.09754281  0.78959169  0.50270811     0.08680
H2174       H  0.18545497  0.73063375  0.59909099     0.08670
H2175       H  0.16212559  0.75311077  0.61881788     0.08670
H2176       H  0.18736711  0.76643189  0.59626565     0.05440
C2177       C  0.11911922  0.78145913  0.45259873    -0.20360
C2178       C  0.13937565  0.77087066  0.47034673    -0.06930
C2179       C  0.14705445  0.74296216  0.46754399     0.13940
C2180       C  0.13592704  0.72740582  0.44585590    -0.20410
C2181       C  0.11730409  0.73886222  0.42705419    -0.06930
C2182       C  0.10820206  0.76600548  0.43092868     0.13930
C2183       C  0.08849630  0.77945977  0.41114686    -0.23760
H2184       H  0.11272652  0.80259486  0.45487650     0.15220
H2185       H  0.14280334  0.70647531  0.44281698     0.15240
C2186       C  0.16738651  0.72892720  0.48609487    -0.23710
H2187       H  0.08467119  0.80125302  0.41658501     0.05460
H2188       H  0.06842241  0.76861768  0.41148040     0.08680
H2189       H  0.09708330  0.77891847  0.39000834     0.08680
H2190       H  0.15731724  0.71108753  0.49613479     0.08670
H2191       H  0.17532766  0.74239342  0.50245924     0.08670
H2192       H  0.18510603  0.72148594  0.47382198     0.05440
C2193       C  0.15794533  0.83503288  0.46056669    -0.20360
C2194       C  0.17119927  0.81127303  0.47010380    -0.06930
C2195       C  0.19540662  0.80241157  0.45664910     0.13940
C2196       C  0.20329329  0.81478576  0.43193047    -0.20410
C2197       C  0.18802913  0.83630016  0.42065170    -0.06930
C2198       C  0.16592148  0.84748229  0.43570190     0.13930
C2199       C  0.14956169  0.87116580  0.42452202    -0.23760
H2200       H  0.13958056  0.84205580  0.47099968     0.15220
H2201       H  0.22083497  0.80681024  0.42075091     0.15240
C2202       C  0.21285858  0.77930149  0.46724545    -0.23710
H2203       H  0.13254931  0.87700146  0.43855960     0.05460
H2204       H  0.14049918  0.86550848  0.40433014     0.08680
H2205       H  0.16318584  0.88927635  0.42186934     0.08680
H2206       H  0.20633851  0.77237939  0.48783169     0.08670
H2207       H  0.23450059  0.78637897  0.46919512     0.08670
H2208       H  0.21204009  0.76178154  0.45267886     0.05440
C2209       C  0.51249163  0.15160946  0.22798089    -0.20360
C2210       C  0.50051295  0.14422238  0.20278023    -0.06930
C2211       C  0.51098171  0.12096396  0.18871525     0.13940
C2212       C  0.53495617  0.10806030  0.19837423    -0.20410
C2213       C  0.54850038  0.11755658  0.22194691    -0.06930
C2214       C  0.53626673  0.13854996  0.23777196     0.13930
C2215       C  0.54853764  0.14755886  0.26480143    -0.23760
H2216       H  0.50437854  0.16869553  0.23938429     0.15220
H2217       H  0.54382686  0.09132074  0.18671154     0.15240
C2218       C  0.49792901  0.10968344  0.16300468    -0.23710
H2219       H  0.53571624  0.16339044  0.27501633     0.05460
H2220       H  0.56928810  0.15646942  0.26158942     0.08680
H2221       H  0.55010377  0.12966861  0.27884430     0.08680
H2222       H  0.47891708  0.12069543  0.15720810     0.08670
H2223       H  0.49236305  0.08782566  0.16630904     0.08670
H2224       H  0.51271897  0.11102509  0.14567302     0.05440
C2225       C  0.50586194  0.17686101  0.14456276    -0.20360
C2226       C  0.49756054  0.18468845  0.17108800    -0.06930
C2227       C  0.50961419  0.20829978  0.18315070     0.13940
C2228       C  0.52993821  0.22259880  0.16900070    -0.20410
C2229       C  0.54096115  0.21251303  0.14446006    -0.06930
C2230       C  0.52818253  0.18984606  0.13146888     0.13930
C2231       C  0.53927527  0.17780529  0.10521350    -0.23760
H2232       H  0.49647284  0.15913529  0.13503293     0.15220
H2233       H  0.53937188  0.24031755  0.17873910     0.15240
C2234       C  0.50274342  0.21858844  0.21145735    -0.23710
H2235       H  0.52791732  0.15894903  0.09914250     0.05460
H2236       H  0.56125586  0.17226712  0.10789223     0.08680
H2237       H  0.53716109  0.19277782  0.08820597     0.08680
H2238       H  0.48570826  0.20710456  0.22078460     0.08670
H2239       H  0.49647146  0.24045272  0.21035572     0.08670
H2240       H  0.52108323  0.21690519  0.22497690     0.05440
C2241       C  0.42212079  0.15660018  0.15189163    -0.20360
C2242       C  0.43585932  0.17591433  0.16859368    -0.06930
C2243       C  0.42722041  0.20375516  0.16685501     0.13940
C2244       C  0.40288712  0.21017794  0.15253965    -0.20410
C2245       C  0.38749649  0.18993396  0.13911572    -0.06930
C2246       C  0.39782648  0.16302003  0.13777547     0.13930
C2247       C  0.38325240  0.14036537  0.12245711    -0.23760
H2248       H  0.42951582  0.13577147  0.15078529     0.15220
H2249       H  0.39533622  0.23109124  0.15238206     0.15240
C2250       C  0.44356540  0.22729137  0.17830882    -0.23710
H2251       H  0.39727249  0.13165723  0.10672626     0.05460
H2252       H  0.36441203  0.14746425  0.11177944     0.08680
H2253       H  0.37734745  0.12389107  0.13709405     0.08520
H2254       H  0.46303319  0.22923137  0.16676118     0.08670
H2255       H  0.44754533  0.22475325  0.20032387     0.08670
H2256       H  0.43266715  0.24714365  0.17586694     0.05440
C2257       C  0.41058395  0.14312101  0.25167864    -0.20360
C2258       C  0.39880768  0.11908817  0.24125849    -0.06930
C2259       C  0.41072654  0.10650445  0.21798505     0.13940
C2260       C  0.43231989  0.11997450  0.20427059    -0.20410
C2261       C  0.44050457  0.14665711  0.21179090    -0.06930
C2262       C  0.43073392  0.15744122  0.23701724     0.13930
C2263       C  0.44008644  0.18450295  0.24840752    -0.23760
H2264       H  0.40194827  0.15212474  0.27013767     0.15220
H2265       H  0.44114193  0.11052174  0.18626103     0.15240
C2266       C  0.39941664  0.08023618  0.20613012    -0.23710
H2267       H  0.43016361  0.18925838  0.26840334     0.05460
H2268       H  0.43434720  0.20108628  0.23423333     0.08680
H2269       H  0.46244294  0.18402761  0.25225050     0.08680
H2270       H  0.37722793  0.08267231  0.20131285     0.08670
H2271       H  0.40220885  0.06321720  0.22097515     0.08670
H2272       H  0.41012740  0.07440366  0.18684160     0.05440
C2273       C  0.20328545  0.50822324  0.18122788    -0.20360
C2274       C  0.17673629  0.50432764  0.17035814    -0.06930
C2275       C  0.16910877  0.51975287  0.14679170     0.13940
C2276       C  0.18669995  0.54055498  0.13710977    -0.20410
C2277       C  0.21178874  0.54618680  0.15011653    -0.06930
C2278       C  0.22088238  0.52880950  0.17139732     0.13930
C2279       C  0.24908912  0.53203991  0.18393324    -0.23760
H2280       H  0.21006439  0.49622763  0.19850186     0.15220
H2281       H  0.18017699  0.55349748  0.12020406     0.15240
C2282       C  0.14268292  0.51468332  0.13150217    -0.23710
H2283       H  0.25335485  0.51583301  0.19940039     0.05460
H2284       H  0.25101555  0.55213756  0.19441872     0.08680
H2285       H  0.26492452  0.53055488  0.16757229     0.08680
H2286       H  0.12479350  0.52005234  0.14427078     0.08670
H2287       H  0.14162923  0.49298818  0.12499148     0.08670
H2288       H  0.14130886  0.52740008  0.11260561     0.05440
C2289       C  0.11121098  0.51025590  0.19492289    -0.20360
C2290       C  0.13761723  0.50388879  0.20475974    -0.06930
C2291       C  0.14809454  0.51884933  0.22740330     0.13940
C2292       C  0.13402536  0.54199996  0.23667050    -0.20410
C2293       C  0.11004405  0.55114924  0.22358924    -0.06930
C2294       C  0.09763114  0.53432845  0.20338069     0.13930
C2295       C  0.07153386  0.54275536  0.18902635    -0.23760
H2296       H  0.10251903  0.49803074  0.17847347     0.15220
H2297       H  0.14298831  0.55422495  0.25304596     0.15240
C2298       C  0.17454755  0.51180358  0.24172398    -0.23710
H2299       H  0.06578644  0.52805520  0.17252967     0.05460
H2300       H  0.07425119  0.56327864  0.17949304     0.08680
H2301       H  0.05430768  0.54341113  0.20391622     0.08680
H2302       H  0.18968084  0.52866899  0.23889832     0.08670
H2303       H  0.18351437  0.49255807  0.23403700     0.08670
H2304       H  0.17063842  0.50903240  0.26404141     0.05440
C2305       C  0.11075271  0.43534493  0.19267846    -0.20360
C2306       C  0.13675328  0.44248379  0.20323985    -0.06930
C2307       C  0.14719478  0.42696223  0.22556893     0.13940
C2308       C  0.13403639  0.40253433  0.23325329    -0.20410
C2309       C  0.11017400  0.39344093  0.21993340    -0.06930
C2310       C  0.09758895  0.41069917  0.20027667     0.13930
C2311       C  0.07148684  0.40234355  0.18578189    -0.23760
H2312       H  0.10151854  0.44799157  0.17698304     0.15220
H2313       H  0.14272332  0.39005834  0.24953386     0.15240
C2314       C  0.17137863  0.43635289  0.24242918    -0.23710
H2315       H  0.06553263  0.41743390  0.16974994     0.05460
H2316       H  0.05430498  0.40097261  0.20067879     0.08680
H2317       H  0.07436778  0.38215034  0.17563645     0.08680
H2318       H  0.16566066  0.45534497  0.25345452     0.08670
H2319       H  0.18969329  0.43986607  0.22965168     0.08670
H2320       H  0.17714138  0.42103561  0.25831670     0.05440
C2321       C  0.20169593  0.43977862  0.17545819    -0.20360
C2322       C  0.17427250  0.44379975  0.16728198    -0.06930
C2323       C  0.16388650  0.42823335  0.14491906     0.13940
C2324       C  0.17963499  0.40673911  0.13421029    -0.20410
C2325       C  0.20578777  0.40098453  0.14468957    -0.06930
C2326       C  0.21758265  0.41853613  0.16444386     0.13930
C2327       C  0.24665887  0.41444035  0.17436562    -0.23760
H2328       H  0.21034932  0.45194046  0.19178326     0.15220
H2329       H  0.17097435  0.39365739  0.11835436     0.15240
C2330       C  0.13632725  0.43343142  0.13191503    -0.23710
H2331       H  0.25291393  0.43054476  0.18928827     0.05460
H2332       H  0.26096903  0.41531698  0.15660718     0.08680
H2333       H  0.24867971  0.39425647  0.18468176     0.08680
H2334       H  0.12650514  0.45217075  0.13990984     0.08670
H2335       H  0.12253409  0.41558230  0.13543328     0.08670
H2336       H  0.13896222  0.43640972  0.10943811     0.05440
C2337       C  0.11242348  0.16997657  0.53870691    -0.20360
C2338       C  0.13891921  0.17679595  0.52932032    -0.06930
C2339       C  0.15137696  0.20121106  0.53927630     0.13940
C2340       C  0.13767084  0.21712069  0.55875038    -0.20410
C2341       C  0.11311517  0.20821190  0.57082979    -0.06930
C2342       C  0.09974739  0.18478061  0.56003878     0.13930
C2343       C  0.07335335  0.17402255  0.57219875    -0.23760
H2344       H  0.10232245  0.15191232  0.53077480     0.15220
H2345       H  0.14778873  0.23530531  0.56679818     0.15240
C2346       C  0.17982894  0.21056770  0.53175585    -0.23710
H2347       H  0.06681760  0.15450187  0.56234754     0.05460
H2348       H  0.05661195  0.18910188  0.56909062     0.08680
H2349       H  0.07611275  0.17005692  0.59450990     0.08680
H2350       H  0.18965286  0.19693820  0.51694225     0.08670
H2351       H  0.19294911  0.21119662  0.55045381     0.08670
H2352       H  0.17893468  0.23143910  0.52264397     0.05440
C2353       C  0.19636219  0.14149597  0.53893171    -0.20360
C2354       C  0.16967043  0.13507435  0.52991317    -0.06930
C2355       C  0.15544003  0.11327476  0.54302076     0.13940
C2356       C  0.16641188  0.10141660  0.56696321    -0.20410
C2357       C  0.19138275  0.11059967  0.57800530    -0.06930
C2358       C  0.20726346  0.12978585  0.56300600     0.13930
C2359       C  0.23540934  0.13846086  0.57274945    -0.23760
H2360       H  0.20808759  0.15703419  0.52825717     0.15220
H2361       H  0.15464273  0.08598544  0.57791103     0.15240
C2362       C  0.12834556  0.10241433  0.53273983    -0.23710
H2363       H  0.24531470  0.15295677  0.55815713     0.05460
H2364       H  0.24880926  0.12015270  0.57469513     0.08680
H2365       H  0.23396630  0.14886078  0.59297332     0.08680
H2366       H  0.12168837  0.11248775  0.51350385     0.08670
H2367       H  0.11226739  0.10544553  0.54864087     0.08670
H2368       H  0.13026187  0.08013305  0.52842456     0.05440
C2369       C  0.16237301  0.11178516  0.46137692    -0.20360
C2370       C  0.17273445  0.13794112  0.46783882    -0.06930
C2371       C  0.19448908  0.14850761  0.45157044     0.13940
C2372       C  0.20198861  0.13510618  0.42733051    -0.20410
C2373       C  0.18866440  0.11111168  0.41870482    -0.06930
C2374       C  0.16948657  0.09851174  0.43660667     0.13930
C2375       C  0.15476720  0.07243311  0.42877928    -0.23760
H2376       H  0.14664362  0.10289290  0.47428932     0.15220
H2377       H  0.21780108  0.14411468  0.41442474     0.15240
C2378       C  0.21013573  0.17409942  0.45872828    -0.23710
H2379       H  0.13892374  0.06671780  0.44419861     0.05460
H2380       H  0.16954970  0.05521974  0.42750592     0.08680
H2381       H  0.14433122  0.07509474  0.40864743     0.08680
H2382       H  0.20494109  0.18152324  0.47932764     0.08670
H2383       H  0.20588300  0.19035669  0.44331422     0.08670
H2384       H  0.23253268  0.16968176  0.45886053     0.05440
C2385       C  0.10411487  0.18730185  0.43457216    -0.20360
C2386       C  0.11716164  0.21220084  0.42849746    -0.06930
C2387       C  0.13889595  0.22140654  0.44540799     0.13940
C2388       C  0.14955827  0.20375223  0.46546428    -0.20410
C2389       C  0.13887425  0.17724678  0.46921047    -0.06930
C2390       C  0.11454161  0.16975971  0.45493820     0.13930
C2391       C  0.09955514  0.14330573  0.46055998    -0.23760
H2392       H  0.08686033  0.18069816  0.42205990     0.15220
H2393       H  0.16732547  0.21024294  0.47699946     0.15240
C2394       C  0.15108017  0.24969232  0.44210668    -0.23710
H2395       H  0.07944928  0.14253648  0.44971937     0.05460
H2396       H  0.09538563  0.14132123  0.48285177     0.08680
H2397       H  0.11158706  0.12565145  0.45315980     0.08680
H2398       H  0.13460462  0.26528480  0.44423490     0.08670
H2399       H  0.16095086  0.25193517  0.42170809     0.08670
H2400       H  0.16697226  0.25396749  0.45797047     0.05440
loop_ 
_geom_bond_atom_site_label_1 
_geom_bond_atom_site_label_2 
_geom_bond_distance 
_geom_bond_site_symmetry_2 
_ccdc_geom_bond_type 
C1            C2   1.365       .  D
C1         C2370   1.501       .  S
C1         C2389   1.497       .  S
C2         C2338   1.499       .  S
C2         C2354   1.497       .  S
C3            C4   1.365       .  D
C3         C2306   1.505       .  S
C3         C2322   1.496       .  S
C4         C2274   1.507       .  S
C4         C2290   1.493       .  S
C5            C6   1.364       .  D
C5         C2242   1.515       .  S
C5         C2261   1.503       .  S
C6         C2210   1.499       .  S
C6         C2226   1.487       .  S
C7            C8   1.364       .  D
C7         C2178   1.498       .  S
C7         C2194   1.493       .  S
C8         C2146   1.505       .  S
C8         C2165   1.501       .  S
C9           C10   1.368       .  D
C9         C2114   1.500       .  S
C9         C2130   1.501       .  S
C10        C2082   1.500       .  S
C10        C2098   1.501       .  S
C11          C12   1.363       .  D
C11        C2050   1.495       .  S
C11        C2066   1.496       .  S
C12        C2018   1.500       .  S
C12        C2034   1.497       .  S
C13          C14   1.361       .  D
C13        C1986   1.510       .  S
C13        C2002   1.507       .  S
C14        C1954   1.494       .  S
C14        C1970   1.488       .  S
C15          C16   1.366       .  D
C15        C1922   1.495       .  S
C15        C1938   1.504       .  S
C16        C1890   1.490       .  S
C16        C1906   1.501       .  S
C17          C18   1.362       .  D
C17        C1861   1.501       .  S
C17        C1874   1.506       .  S
C18        C1829   1.489       .  S
C18        C1842   1.498       .  S
C19          C20   1.361       .  D
C19        C1765   1.502       .  S
C19        C1778   1.497       .  S
C20        C1794   1.495       .  S
C20        C1810   1.492       .  S
C21          C22   1.366       .  D
C21        C1730   1.496       .  S
C21        C1746   1.511       .  S
C22        C1698   1.490       .  S
C22        C1717   1.507       .  S
C23          C24   1.359       .  D
C23        C1666   1.494       .  S
C23        C1682   1.496       .  S
C24        C1637   1.495       .  S
C24        C1650   1.495       .  S
C25          C26   1.405       .  A
C25          C30   1.404       .  A
C25        C1653   1.478       .  S
C26          C27   1.403       .  A
C26          H31   1.084       .  S
C27          C28   1.408       .  A
C27          C88   1.487       .  S
C28          C29   1.406       .  A
C28          H32   1.084       .  S
C29          C30   1.403       .  A
C29        C1618   1.481       .  S
C30          H33   1.084       .  S
C34          C35   1.410       .  A
C34          C39   1.410       .  A
C34        C1701   1.486       .  S
C35          C36   1.397       .  A
C35          H40   1.084       .  S
C36          C37   1.389       .  A
C36          C95   1.476       .  S
C37          C38   1.403       .  A
C37          H41   1.084       .  S
C38          C39   1.409       .  A
C38        C1602   1.487       .  S
C39          H42   1.078       .  S
C43          C44   1.402       .  A
C43          C48   1.405       .  A
C43        C1714   1.477       .  S
C44          C45   1.399       .  A
C44          H49   1.084       .  S
C45          C46   1.404       .  A
C45          C96   1.483       .  S
C46          C47   1.408       .  A
C46          H50   1.084       .  S
C47          C48   1.407       .  A
C47        C1586   1.485       .  S
C48          H51   1.083       .  S
C52          C53   1.400       .  A
C52          C57   1.406       .  A
C52        C2021   1.476       .  S
C53          C54   1.401       .  A
C53          H58   1.083       .  S
C54          C55   1.403       .  A
C54        C1570   1.476       .  S
C55          C56   1.402       .  A
C55          H59   1.084       .  S
C56          C57   1.408       .  A
C56         C120   1.484       .  S
C57          H60   1.084       .  S
C61          C62   1.406       .  A
C61          C66   1.403       .  A
C61        C1554   1.477       .  S
C62          C63   1.407       .  A
C62          H67   1.079       .  S
C63          C64   1.408       .  A
C63        C2037   1.495       .  S
C64          C65   1.398       .  A
C64          H68   1.083       .  S
C65          C66   1.401       .  A
C65         C122   1.481       .  S
C66          H69   1.084       .  S
C70          C71   1.407       .  A
C70          C75   1.405       .  A
C70        C1538   1.484       .  S
C71          C72   1.407       .  A
C71          H76   1.081       .  S
C72          C73   1.409       .  A
C72        C1634   1.489       .  S
C73          C74   1.404       .  A
C73          H77   1.084       .  S
C74          C75   1.396       .  A
C74          C84   1.483       .  S
C75          H78   1.083       .  S
O79         Mg81   2.142       .  S
O79         Mg87   2.161       .  S
O79         C114   1.234       .  S
C80         H119   1.081       .  S
C80          O93   1.234       .  S
C80         O117   1.268       .  A
Mg81        O110   2.165       .  S
Mg81        O125   2.307       .  S
Mg81        O121   2.245       .  S
Mg81         O92   2.296       .  S
O82        Mg124   2.165       .  S
O82        Mg107   2.155       .  S
O82         C103   1.234       .  S
O83         C114   1.268       .  A
O83        Mg107   2.292       .  S
C84          O86   1.274       .  A
C84          O98   1.274       .  A
O85         C113   1.268       .  A
O85         Mg87   2.297       .  S
O86        Mg118   2.265       .  S
Mg87         O93   2.143       .  S
Mg87        O101   2.259       .  S
Mg87         O89   2.301       .  S
C88         O126   1.274       .  A
C88          O94   1.275       .  A
O89          C96   1.275       .  A
H90         C103   1.081       .  S
C91         H116   1.081       .  S
C91         O105   1.234       .  S
C91         O106   1.267       .  A
O92         C115   1.269       .  A
O93        Mg107   2.165       .  S
O94        Mg124   2.308       .  S
C95         O108   1.271       .  A
C95         O100   1.272       .  A
C96         O123   1.272       .  A
Mg97        O104   2.153       .  S
Mg97        O105   2.157       .  S
Mg97         O98   2.292       .  S
Mg97         O99   2.295       .  S
Mg97        O126   2.272       .  S
O99         C103   1.268       .  A
O100       Mg107   2.288       .  S
O101        C120   1.273       .  A
O102        C122   1.274       .  A
O102       Mg118   2.301       .  S
O104       Mg118   2.170       .  S
O104        C115   1.234       .  S
O105       Mg124   2.133       .  S
O106       Mg118   2.291       .  S
Mg107       O123   2.258       .  S
O108       Mg124   2.235       .  S
H109        C114   1.081       .  S
O110       Mg118   2.158       .  S
O110        C113   1.234       .  S
H111        C113   1.081       .  S
H112        C115   1.081       .  S
O117       Mg124   2.293       .  S
C120        O125   1.275       .  A
O121        C122   1.271       .  A
C127        C128   1.365   1_556  D
C127       C1605   1.486       .  S
C127       C1621   1.507       .  S
C128       C1506   1.496       .  S
C128       C1525   1.512       .  S
C129        C130   1.361       .  D
C129       C1541   1.493       .  S
C129       C1557   1.499       .  S
C130       C1474   1.491   1_565  S
C130       C1490   1.494   1_565  S
C131        C132   1.363       .  D
C131       C1573   1.490       .  S
C131       C1589   1.496       .  S
C132       C1442   1.493   1_655  S
C132       C1458   1.500   1_655  S
C133        C134   1.407       .  A
C133        C138   1.403       .  A
C133       C1749   1.478       .  S
C134        C135   1.407       .  A
C134        H139   1.084       .  S
C135        C136   1.399       .  A
C135        C196   1.482       .  S
C136        C137   1.402       .  A
C136        H140   1.085       .  S
C137        C138   1.402       .  A
C137       C1426   1.475       .  S
C138        H141   1.083       .  S
C142        C143   1.411       .  A
C142        C147   1.409       .  A
C142       C1957   1.492       .  S
C143        C144   1.404       .  A
C143        H148   1.083       .  S
C144        C145   1.403       .  A
C144        C192   1.488       .  S
C145        C146   1.406       .  A
C145        H149   1.084       .  S
C146        C147   1.404       .  A
C146       C1410   1.487       .  S
C147        H150   1.083       .  S
C151        C152   1.406       .  A
C151        C156   1.407       .  A
C151       C1733   1.491       .  S
C152        C153   1.393       .  A
C152        H157   1.084       .  S
C153        C154   1.398       .  A
C153        C203   1.477       .  S
C154        C155   1.405       .  A
C154        H158   1.084       .  S
C155        C156   1.408       .  A
C155       C1397   1.478       .  S
C156        H159   1.079       .  S
C160        C161   1.402       .  A
C160        C165   1.407       .  A
C160       C2101   1.481       .  S
C161        C162   1.403       .  A
C161        H166   1.083       .  S
C162        C163   1.406       .  A
C162       C1378   1.480       .  S
C163        C164   1.401       .  A
C163        H167   1.084       .  S
C164        C165   1.407       .  A
C164        C204   1.485       .  S
C165        H168   1.084       .  S
C169        C170   1.402       .  A
C169        C174   1.402       .  A
C169       C2085   1.473       .  S
C170        C171   1.398       .  A
C170        H175   1.084       .  S
C171        C172   1.403       .  A
C171        C228   1.481       .  S
C172        C173   1.409       .  A
C172        H176   1.083       .  S
C173        C174   1.404       .  A
C173       C1477   1.484       .  S
C174        H177   1.083       .  S
C178        C179   1.403       .  A
C178        C183   1.401       .  A
C178       C1973   1.475       .  S
C179        C180   1.402       .  A
C179        H184   1.084       .  S
C180        C181   1.401       .  A
C180       C1493   1.473       .  S
C181        C182   1.401       .  A
C181        H185   1.084       .  S
C182        C183   1.403       .  A
C182        C230   1.477       .  S
C183        H186   1.084       .  S
O187       Mg189   2.139       .  S
O187       Mg195   2.159       .  S
O187        C222   1.233       .  S
C188        H227   1.081       .  S
C188        O201   1.234       .  S
C188        O225   1.267       .  A
Mg189       O218   2.165       .  S
Mg189       O233   2.299       .  S
Mg189       O229   2.249       .  S
Mg189       O200   2.295       .  S
O190       Mg232   2.167       .  S
O190       Mg215   2.159       .  S
O190        C211   1.234       .  S
O191        C222   1.267       .  A
O191       Mg215   2.289       .  S
C192        O194   1.273       .  A
C192        O206   1.276       .  A
O193        C221   1.269       .  A
O193       Mg195   2.296       .  S
O194       Mg226   2.271       .  S
Mg195       O201   2.137       .  S
Mg195       O209   2.252       .  S
Mg195       O197   2.302       .  S
C196        O234   1.273       .  A
C196        O202   1.273       .  A
O197        C204   1.275       .  A
H198        C211   1.081       .  S
C199        H224   1.081       .  S
C199        O213   1.234       .  S
C199        O214   1.268       .  A
O200        C223   1.269       .  A
O201       Mg215   2.166       .  S
O202       Mg232   2.297       .  S
C203        O216   1.271       .  A
C203        O208   1.273       .  A
C204        O231   1.274       .  A
Mg205       O212   2.139       .  S
Mg205       O213   2.158       .  S
Mg205       O206   2.309       .  S
Mg205       O207   2.300       .  S
Mg205       O234   2.260       .  S
O207        C211   1.269       .  A
O208       Mg215   2.291       .  S
O209        C228   1.272       .  A
O210        C230   1.273       .  A
O210       Mg226   2.286       .  S
O212       Mg226   2.162       .  S
O212        C223   1.235       .  S
O213       Mg232   2.145       .  S
O214       Mg226   2.295       .  S
Mg215       O231   2.271       .  S
O216       Mg232   2.239       .  S
H217        C222   1.081       .  S
O218       Mg226   2.152       .  S
O218        C221   1.235       .  S
H219        C221   1.081       .  S
H220        C223   1.081       .  S
O225       Mg232   2.290       .  S
C228        O233   1.274       .  A
O229        C230   1.271       .  A
C235        C236   1.413       .  A
C235        C240   1.412       .  A
C235       C1362   1.502       .  S
C236        C237   1.410       .  A
C236        H241   1.075       .  S
C237        C238   1.405       .  A
C237       C1669   1.486       .  S
C238        C239   1.394       .  A
C238        H242   1.085       .  S
C239        C240   1.395       .  A
C239        C298   1.475       .  S
C240        H243   1.084       .  S
C244        C245   1.401       .  A
C244        C249   1.405       .  A
C244       C1346   1.473       .  S
C245        C246   1.402       .  A
C245        H250   1.083       .  S
C246        C247   1.406       .  A
C246       C1909   1.479       .  S
C247        C248   1.400       .  A
C247        H251   1.084       .  S
C248        C249   1.402       .  A
C248        C305   1.477       .  S
C249        H252   1.084       .  S
C253        C254   1.407       .  A
C253        C258   1.406       .  A
C253       C1685   1.480       .  S
C254        C255   1.403       .  A
C254        H259   1.084       .  S
C255        C256   1.404       .  A
C255        C294   1.483       .  S
C256        C257   1.408       .  A
C256        H260   1.084       .  S
C257        C258   1.404       .  A
C257       C1330   1.487       .  S
C258        H261   1.083       .  S
C262        C263   1.407       .  A
C262        C267   1.401       .  A
C262       C2149   1.484       .  S
C263        C264   1.406       .  A
C263        H268   1.079       .  S
C264        C265   1.407       .  A
C264        C332   1.488       .  S
C265        C266   1.408       .  A
C265        H269   1.084       .  S
C266        C267   1.406       .  A
C266       C1314   1.484       .  S
C267        H270   1.084       .  S
C271        C272   1.401       .  A
C271        C276   1.404       .  A
C271       C1893   1.478       .  S
C272        C273   1.405       .  A
C272        H277   1.084       .  S
C273        C274   1.405       .  A
C273       C1445   1.476       .  S
C274        C275   1.402       .  A
C274        H278   1.084       .  S
C275        C276   1.401       .  A
C275        C306   1.475       .  S
C276        H279   1.085       .  S
C280        C281   1.423       .  A
C280        C285   1.406       .  A
C280       C2162   1.513       .  S
C281        C282   1.412       .  A
C281        H286   1.080       .  S
C282        C283   1.403       .  A
C282       C1461   1.487       .  S
C283        C284   1.390       .  A
C283        H287   1.084       .  S
C284        C285   1.388       .  A
C284        C330   1.467       .  S
C285        H288   1.072       .  S
O289       Mg291   2.152       .  S
O289       Mg297   2.144       .  S
O289        C324   1.236       .  S
C290        H329   1.081       .  S
C290        O303   1.235       .  S
C290        O327   1.269       .  A
Mg291       O320   2.144       .  S
Mg291       O335   2.321       .  S
Mg291       O331   2.296       .  S
Mg291       O302   2.313       .  S
O292       Mg334   2.150       .  S
O292       Mg317   2.147       .  S
O292        C313   1.236       .  S
O293        C324   1.271       .  A
O293       Mg317   2.304       .  S
C294        O296   1.272       .  A
C294        O308   1.275       .  A
O295        C323   1.273       .  A
O295       Mg297   2.312       .  S
O296       Mg328   2.274       .  S
Mg297       O303   2.134       .  S
Mg297       O311   2.240       .  S
Mg297       O299   2.303       .  S
C298        O336   1.271       .  A
C298        O304   1.272       .  A
O299        C306   1.273       .  A
H300        C313   1.081       .  S
C301        H326   1.081       .  S
C301        O315   1.236       .  S
C301        O316   1.273       .  A
O302        C325   1.272       .  A
O303       Mg317   2.143       .  S
O304       Mg334   2.288       .  S
C305        O318   1.273       .  A
C305        O310   1.273       .  A
C306        O333   1.271       .  A
Mg307       O314   2.158       .  S
Mg307       O315   2.148       .  S
Mg307       O308   2.322       .  S
Mg307       O309   2.308       .  S
Mg307       O336   2.266       .  S
O309        C313   1.271       .  A
O310       Mg317   2.296       .  S
O311        C330   1.266       .  A
O312        C332   1.276       .  A
O312       Mg328   2.324       .  S
O314       Mg328   2.141       .  S
O314        C325   1.236       .  S
O315       Mg334   2.168       .  S
O316       Mg328   2.317       .  S
Mg317       O333   2.270       .  S
O318       Mg334   2.283       .  S
H319        C324   1.081       .  S
O320       Mg328   2.156       .  S
O320        C323   1.238       .  S
H321        C323   1.081       .  S
H322        C325   1.081       .  S
O327       Mg334   2.297       .  S
C330        O335   1.278       .  A
O331        C332   1.275       .  A
C337        C338   1.375       .  D
C337       C1317   1.505       .  S
C337       C1333   1.495       .  S
C338       C1285   1.521   1_565  S
C338       C1298   1.501   1_565  S
C339        C340   1.408       .  A
C339        C344   1.402       .  A
C339       C2005   1.480       .  S
C340        C341   1.408       .  A
C340        H345   1.081       .  S
C341        C342   1.406       .  A
C341        C436   1.489       .  S
C342        C343   1.402       .  A
C342        H346   1.084       .  S
C343        C344   1.401       .  A
C343       C1266   1.474       .  S
C344        H347   1.084       .  S
C348        C349   1.402       .  A
C348        C353   1.407       .  A
C348       C1925   1.483       .  S
C349        C350   1.397       .  A
C349        H354   1.084       .  S
C350        C351   1.401       .  A
C350        C434   1.483       .  S
C351        C352   1.412       .  A
C351        H355   1.084       .  S
C352        C353   1.409       .  A
C352       C1250   1.495       .  S
C353        H356   1.080       .  S
C357        C358   1.408       .  A
C357        C362   1.406       .  A
C357       C2357   1.486       .  S
C358        C359   1.411       .  A
C358        H363   1.083       .  S
C359        C360   1.406       .  A
C359       C1301   1.491       .  S
C360        C361   1.401       .  A
C360        H364   1.083       .  S
C361        C362   1.404       .  A
C361        C402   1.484       .  S
C362        H365   1.084       .  S
C366        C367   1.428       .  A
C366        C371   1.407       .  A
C366       C1989   1.526       .  S
C367        C368   1.414       .  A
C367        H372   1.078       .  S
C368        C369   1.401       .  A
C368       C1282   1.488       .  S
C369        C370   1.397       .  A
C369        H373   1.084       .  S
C370        C371   1.391       .  A
C370        C398   1.476       .  S
C371        H374   1.072       .  S
C375        C376   1.405       .  A
C375        C380   1.404       .  A
C375       C1237   1.474       .  S
C376        C377   1.404       .  A
C376        H381   1.082       .  S
C377        C378   1.405       .  A
C377       C2341   1.484       .  S
C378        C379   1.398       .  A
C378        H382   1.084       .  S
C379        C380   1.401       .  A
C379        C409   1.479       .  S
C380        H383   1.084       .  S
C384        C385   1.405       .  A
C384        C389   1.407       .  A
C384       C1218   1.487       .  S
C385        C386   1.404       .  A
C385        H390   1.083       .  S
C386        C387   1.408       .  A
C386       C1941   1.483       .  S
C387        C388   1.405       .  A
C387        H391   1.084       .  S
C388        C389   1.399       .  A
C388        C410   1.486       .  S
C389        H392   1.083       .  S
O393       Mg395   2.146       .  S
O393       Mg401   2.162       .  S
O393        C428   1.234       .  S
C394        H433   1.081       .  S
C394        O407   1.234       .  S
C394        O431   1.268       .  A
Mg395       O424   2.159       .  S
Mg395       O439   2.305       .  S
Mg395       O435   2.264       .  S
Mg395       O406   2.293       .  S
O396       Mg438   2.169       .  S
O396       Mg421   2.155       .  S
O396        C417   1.234       .  S
O397        C428   1.268       .  A
O397       Mg421   2.292       .  S
C398        O400   1.275       .  A
C398        O412   1.271       .  A
O399        C427   1.268       .  A
O399       Mg401   2.290       .  S
O400       Mg432   2.264       .  S
Mg401       O407   2.148       .  S
Mg401       O415   2.256       .  S
Mg401       O403   2.303       .  S
C402        O440   1.271       .  A
C402        O408   1.274       .  A
O403        C410   1.275       .  A
H404        C417   1.081       .  S
C405        H430   1.081       .  S
C405        O419   1.236       .  S
C405        O420   1.270       .  A
O406        C429   1.269       .  A
O407       Mg421   2.164       .  S
O408       Mg438   2.306       .  S
C409        O422   1.271       .  A
C409        O414   1.275       .  A
C410        O437   1.274       .  A
Mg411       O418   2.149       .  S
Mg411       O419   2.161       .  S
Mg411       O412   2.282       .  S
Mg411       O413   2.295       .  S
Mg411       O440   2.256       .  S
O413        C417   1.269       .  A
O414       Mg421   2.302       .  S
O415        C434   1.273       .  A
O416        C436   1.279       .  A
O416       Mg432   2.329       .  S
O418       Mg432   2.162       .  S
O418        C429   1.235       .  S
O419       Mg438   2.140       .  S
O420       Mg432   2.297       .  S
Mg421       O437   2.268       .  S
O422       Mg438   2.240       .  S
H423        C428   1.081       .  S
O424       Mg432   2.142       .  S
O424        C427   1.235       .  S
H425        C427   1.081       .  S
H426        C429   1.081       .  S
O431       Mg438   2.294       .  S
C434        O439   1.276       .  A
O435        C436   1.274       .  A
C441        C442   1.360       .  D
C441       C1381   1.495       .  S
C441       C1394   1.498       .  S
C442       C1221   1.494       .  S
C442       C1234   1.493   1_655  S
C443        C444   1.376   1_556  D
C443       C1253   1.505       .  S
C443       C1269   1.494       .  S
C444       C1186   1.541       .  S
C444       C1202   1.504       .  S
C445        C446   1.366       .  D
C445       C1154   1.491   1_565  S
C445       C1170   1.489   1_565  S
C446       C1125   1.500       .  S
C446       C1141   1.516       .  S
C447        C448   1.402       .  A
C447        C452   1.397       .  A
C447       C2325   1.472       .  S
C448        C449   1.405       .  A
C448        H453   1.084       .  S
C449        C450   1.409       .  A
C449        C510   1.493       .  S
C450        C451   1.414       .  A
C450        H454   1.081       .  S
C451        C452   1.398       .  A
C451       C1205   1.481       .  S
C452        H455   1.084       .  S
C456        C457   1.407       .  A
C456        C461   1.407       .  A
C456       C2245   1.478       .  S
C457        C458   1.405       .  A
C457        H462   1.083       .  S
C458        C459   1.407       .  A
C458       C1189   1.486       .  S
C459        C460   1.394       .  A
C459        H463   1.084       .  S
C460        C461   1.406       .  A
C460        C517   1.486       .  S
C461        H464   1.084       .  S
C465        C466   1.402       .  A
C465        C470   1.406       .  A
C465       C2258   1.481       .  S
C466        C467   1.403       .  A
C466        H471   1.082       .  S
C467        C468   1.406       .  A
C467       C1173   1.478       .  S
C468        C469   1.401       .  A
C468        H472   1.084       .  S
C469        C470   1.400       .  A
C469        C518   1.481       .  S
C470        H473   1.084       .  S
C474        C475   1.410       .  A
C474        C479   1.404       .  A
C474       C2373   1.490       .  S
C475        C476   1.406       .  A
C475        H480   1.084       .  S
C476        C477   1.404       .  A
C476        C542   1.488       .  S
C477        C478   1.403       .  A
C477        H481   1.084       .  S
C478        C479   1.404       .  A
C478       C1157   1.479       .  S
C479        H482   1.082       .  S
C483        C484   1.406       .  A
C483        C488   1.409       .  A
C483       C1106   1.488       .  S
C484        C485   1.404       .  A
C484        H489   1.081       .  S
C485        C486   1.402       .  A
C485       C2386   1.478       .  S
C486        C487   1.400       .  A
C486        H490   1.084       .  S
C487        C488   1.402       .  A
C487        C544   1.482       .  S
C488        H491   1.084       .  S
C492        C493   1.404       .  A
C492        C497   1.402       .  A
C492       C1090   1.476       .  S
C493        C494   1.404       .  A
C493        H498   1.084       .  S
C494        C495   1.408       .  A
C494        C506   1.488       .  S
C495        C496   1.409       .  A
C495        H499   1.084       .  S
C496        C497   1.403       .  A
C496       C2309   1.487       .  S
C497        H500   1.083       .  S
O501       Mg503   2.137       .  S
O501       Mg509   2.163       .  S
O501        C536   1.236       .  S
C502        H541   1.081       .  S
C502        O515   1.235       .  S
C502        O539   1.269       .  A
Mg503       O532   2.163       .  S
Mg503       O547   2.319       .  S
Mg503       O543   2.249       .  S
Mg503       O514   2.301       .  S
O504       Mg546   2.161       .  S
O504       Mg529   2.150       .  S
O504        C525   1.234       .  S
O505        C536   1.269       .  A
O505       Mg529   2.290       .  S
C506        O508   1.274       .  A
C506        O520   1.277       .  A
O507        C535   1.269       .  A
O507       Mg509   2.295       .  S
O508       Mg540   2.273       .  S
Mg509       O515   2.143       .  S
Mg509       O523   2.263       .  S
Mg509       O511   2.304       .  S
C510        O548   1.274       .  A
C510        O516   1.281       .  A
O511        C518   1.275       .  A
H512        C525   1.081       .  S
C513        H538   1.081       .  S
C513        O527   1.236       .  S
C513        O528   1.270       .  A
O514        C537   1.270       .  A
O515       Mg529   2.158       .  S
O516       Mg546   2.353       .  S
C517        O530   1.279       .  A
C517        O522   1.272       .  A
C518        O545   1.271       .  A
Mg519       O526   2.155       .  S
Mg519       O527   2.164       .  S
Mg519       O520   2.315       .  S
Mg519       O521   2.292       .  S
Mg519       O548   2.258       .  S
O521        C525   1.268       .  A
O522       Mg529   2.289       .  S
O523        C542   1.273       .  A
O524        C544   1.277       .  A
O524       Mg540   2.314       .  S
O526       Mg540   2.160       .  S
O526        C537   1.236       .  S
O527       Mg546   2.161       .  S
O528       Mg540   2.301       .  S
Mg529       O545   2.251       .  S
O530       Mg546   2.289       .  S
H531        C536   1.081       .  S
O532       Mg540   2.151       .  S
O532        C535   1.235       .  S
H533        C535   1.081       .  S
H534        C537   1.081       .  S
O539       Mg546   2.296       .  S
C542        O547   1.277       .  A
O543        C544   1.272       .  A
C549        C550   1.359       .  D
C549       C1058   1.497       .  S
C549       C1074   1.495       .  S
C550       C1093   1.495       .  S
C550       C1109   1.493   1_655  S
C551        C552   1.365   1_556  D
C551       C1413   1.493       .  S
C551       C1429   1.497       .  S
C552       C1026   1.496       .  S
C552       C1045   1.498       .  S
C553        C554   1.406       .  A
C553        C558   1.405       .  A
C553       C1813   1.486       .  S
C554        C555   1.407       .  A
C554        H559   1.081       .  S
C555        C556   1.407       .  A
C555       C1077   1.486       .  S
C556        C557   1.401       .  A
C556        H560   1.084       .  S
C557        C558   1.396       .  A
C557        C650   1.479       .  S
C558        H561   1.084       .  S
C562        C563   1.402       .  A
C562        C567   1.406       .  A
C562       C2117   1.482       .  S
C563        C564   1.404       .  A
C563        H568   1.084       .  S
C564        C565   1.405       .  A
C564       C1061   1.480       .  S
C565        C566   1.403       .  A
C565        H569   1.084       .  S
C566        C567   1.406       .  A
C566        C612   1.485       .  S
C567        H570   1.084       .  S
C571        C572   1.403       .  A
C571        C576   1.406       .  A
C571       C2229   1.481       .  S
C572        C573   1.402       .  A
C572        H577   1.082       .  S
C573        C574   1.406       .  A
C573       C1042   1.474       .  S
C574        C575   1.404       .  A
C574        H578   1.084       .  S
C575        C576   1.396       .  A
C575        C624   1.481       .  S
C576        H579   1.084       .  S
C580        C581   1.407       .  A
C580        C585   1.407       .  A
C580       C1797   1.479       .  S
C581        C582   1.402       .  A
C581        H586   1.084       .  S
C582        C583   1.395       .  A
C582        C648   1.481       .  S
C583        C584   1.407       .  A
C583        H587   1.084       .  S
C584        C585   1.407       .  A
C584       C1029   1.491       .  S
C585        H588   1.080       .  S
C589        C590   1.405       .  A
C589        C594   1.404       .  A
C589       C2213   1.484       .  S
C590        C591   1.405       .  A
C590        H595   1.084       .  S
C591        C592   1.398       .  A
C591        C623   1.482       .  S
C592        C593   1.407       .  A
C592        H596   1.084       .  S
C593        C594   1.408       .  A
C593       C1010   1.489       .  S
C594        H597   1.081       .  S
C598        C599   1.405       .  A
C598        C603   1.403       .  A
C598       C2133   1.485       .  S
C599        C600   1.405       .  A
C599        H604   1.083       .  S
C600        C601   1.407       .  A
C600        C994   1.477       .  S
C601        C602   1.403       .  A
C601        H605   1.084       .  S
C602        C603   1.397       .  A
C602        C616   1.481       .  S
C603        H606   1.083       .  S
O607       Mg609   2.148       .  S
O607       Mg615   2.169       .  S
O607        C642   1.234       .  S
C608        H647   1.081       .  S
C608        O621   1.234       .  S
C608        O645   1.269       .  A
Mg609       O638   2.168       .  S
Mg609       O653   2.300       .  S
Mg609       O649   2.248       .  S
Mg609       O620   2.291       .  S
O610       Mg652   2.164       .  S
O610       Mg635   2.151       .  S
O610        C631   1.234       .  S
O611        C642   1.268       .  A
O611       Mg635   2.293       .  S
C612        O614   1.272       .  A
C612        O626   1.276       .  A
O613        C641   1.266       .  A
O613       Mg615   2.288       .  S
O614       Mg646   2.262       .  S
Mg615       O621   2.148       .  S
Mg615       O629   2.246       .  S
Mg615       O617   2.291       .  S
C616        O654   1.272       .  A
C616        O622   1.274       .  A
O617        C624   1.272       .  A
H618        C631   1.081       .  S
C619        H644   1.081       .  S
C619        O633   1.235       .  S
C619        O634   1.269       .  A
O620        C643   1.267       .  A
O621       Mg635   2.161       .  S
O622       Mg652   2.305       .  S
C623        O636   1.273       .  A
C623        O628   1.273       .  A
C624        O651   1.272       .  A
Mg625       O632   2.139       .  S
Mg625       O633   2.166       .  S
Mg625       O626   2.307       .  S
Mg625       O627   2.297       .  S
Mg625       O654   2.245       .  S
O627        C631   1.268       .  A
O628       Mg635   2.288       .  S
O629        C648   1.272       .  A
O630        C650   1.274       .  A
O630       Mg646   2.292       .  S
O632       Mg646   2.157       .  S
O632        C643   1.234       .  S
O633       Mg652   2.156       .  S
O634       Mg646   2.297       .  S
Mg635       O651   2.256       .  S
O636       Mg652   2.266       .  S
H637        C642   1.081       .  S
O638       Mg646   2.145       .  S
O638        C641   1.233       .  S
H639        C641   1.081       .  S
H640        C643   1.081       .  S
O645       Mg652   2.299       .  S
C648        O653   1.274       .  A
O649        C650   1.272       .  A
C655        C656   1.365       .  D
C655        C965   1.498       .  S
C655        C978   1.497       .  S
C656        C997   1.498   1_565  S
C656       C1013   1.498   1_565  S
C657        C658   1.405       .  A
C657        C662   1.406       .  A
C657        C962   1.480       .  S
C658        C659   1.404       .  A
C658        H663   1.082       .  S
C659        C660   1.404       .  A
C659       C2053   1.482       .  S
C660        C661   1.398       .  A
C660        H664   1.084       .  S
C661        C662   1.405       .  A
C661        C727   1.481       .  S
C662        H665   1.084       .  S
C666        C667   1.408       .  A
C666        C671   1.406       .  A
C666        C981   1.488       .  S
C667        C668   1.405       .  A
C667        H672   1.083       .  S
C668        C669   1.406       .  A
C668       C1845   1.484       .  S
C669        C670   1.406       .  A
C669        H673   1.084       .  S
C670        C671   1.398       .  A
C670        C728   1.484       .  S
C671        H674   1.083       .  S
C675        C676   1.407       .  A
C675        C680   1.402       .  A
C675       C2069   1.480       .  S
C676        C677   1.407       .  A
C676        H681   1.084       .  S
C677        C678   1.402       .  A
C677        C720   1.484       .  S
C678        C679   1.404       .  A
C678        H682   1.084       .  S
C679        C680   1.403       .  A
C679        C946   1.477       .  S
C680        H683   1.083       .  S
C684        C685   1.401       .  A
C684        C689   1.402       .  A
C684       C1762   1.471       .  S
C685        C686   1.401       .  A
C685        H690   1.084       .  S
C686        C687   1.406       .  A
C686        C930   1.478       .  S
C687        C688   1.405       .  A
C687        H691   1.084       .  S
C688        C689   1.401       .  A
C688        C716   1.483       .  S
C689        H692   1.084       .  S
C693        C694   1.407       .  A
C693        C698   1.407       .  A
C693       C1826   1.488       .  S
C694        C695   1.408       .  A
C694        H699   1.077       .  S
C695        C696   1.410       .  A
C695       C1509   1.489       .  S
C696        C697   1.400       .  A
C696        H700   1.084       .  S
C697        C698   1.393       .  A
C697        C752   1.481       .  S
C698        H701   1.084       .  S
C702        C703   1.405       .  A
C702        C707   1.410       .  A
C702       C1781   1.484       .  S
C703        C704   1.402       .  A
C703        H708   1.082       .  S
C704        C705   1.400       .  A
C704       C1522   1.471       .  S
C705        C706   1.399       .  A
C705        H709   1.085       .  S
C706        C707   1.403       .  A
C706        C754   1.481       .  S
C707        H710   1.084       .  S
O711       Mg713   2.144       .  S
O711       Mg719   2.164       .  S
O711        C746   1.233       .  S
C712        H751   1.081       .  S
C712        O725   1.234       .  S
C712        O749   1.268       .  A
Mg713       O742   2.163       .  S
Mg713       O757   2.292       .  S
Mg713       O753   2.246       .  S
Mg713       O724   2.290       .  S
O714       Mg756   2.167       .  S
O714       Mg739   2.160       .  S
O714        C735   1.235       .  S
O715        C746   1.267       .  A
O715       Mg739   2.292       .  S
C716        O718   1.273       .  A
C716        O730   1.275       .  A
O717        C745   1.267       .  A
O717       Mg719   2.290       .  S
O718       Mg750   2.261       .  S
Mg719       O725   2.149       .  S
Mg719       O733   2.254       .  S
Mg719       O721   2.293       .  S
C720        O758   1.273       .  A
C720        O726   1.275       .  A
O721        C728   1.273       .  A
H722        C735   1.081       .  S
C723        H748   1.081       .  S
C723        O737   1.235       .  S
C723        O738   1.269       .  A
O724        C747   1.268       .  A
O725       Mg739   2.166       .  S
O726       Mg756   2.306       .  S
C727        O740   1.272       .  A
C727        O732   1.274       .  A
C728        O755   1.274       .  A
Mg729       O736   2.143       .  S
Mg729       O737   2.161       .  S
Mg729       O730   2.303       .  S
Mg729       O731   2.301       .  S
Mg729       O758   2.263       .  S
O731        C735   1.270       .  A
O732       Mg739   2.298       .  S
O733        C752   1.272       .  A
O734        C754   1.276       .  A
O734       Mg750   2.307       .  S
O736       Mg750   2.163       .  S
O736        C747   1.234       .  S
O737       Mg756   2.148       .  S
O738       Mg750   2.296       .  S
Mg739       O755   2.268       .  S
O740       Mg756   2.254       .  S
H741        C746   1.081       .  S
O742       Mg750   2.143       .  S
O742        C745   1.234       .  S
H743        C745   1.081       .  S
H744        C747   1.081       .  S
O749       Mg756   2.297       .  S
C752        O757   1.273       .  A
O753        C754   1.272       .  A
C759        C760   1.366       .  D
C759        C933   1.501       .  S
C759        C949   1.499       .  S
C760        C898   1.498   1_655  S
C760        C917   1.494   1_655  S
C761        C762   1.404       .  A
C761        C766   1.408       .  A
C761       C2197   1.478       .  S
C762        C763   1.407       .  A
C762        H767   1.082       .  S
C763        C764   1.410       .  A
C763       C1138   1.492       .  S
C764        C765   1.393       .  A
C764        H768   1.083       .  S
C765        C766   1.403       .  A
C765        C831   1.481       .  S
C766        H769   1.084       .  S
C770        C771   1.401       .  A
C770        C775   1.411       .  A
C770       C1858   1.481       .  S
C771        C772   1.397       .  A
C771        H776   1.082       .  S
C772        C773   1.407       .  A
C772       C1122   1.474       .  S
C773        C774   1.402       .  A
C773        H777   1.077       .  S
C774        C775   1.405       .  A
C774        C832   1.488       .  S
C775        H778   1.084       .  S
C779        C780   1.404       .  A
C779        C784   1.405       .  A
C779        C882   1.480       .  S
C780        C781   1.407       .  A
C780        H785   1.083       .  S
C781        C782   1.407       .  A
C781       C2277   1.482       .  S
C782        C783   1.401       .  A
C782        H786   1.084       .  S
C783        C784   1.401       .  A
C783        C858   1.478       .  S
C784        H787   1.085       .  S
C788        C789   1.405       .  A
C788        C793   1.406       .  A
C788       C2293   1.486       .  S
C789        C790   1.408       .  A
C789        H794   1.082       .  S
C790        C791   1.407       .  A
C790        C914   1.482       .  S
C791        C792   1.398       .  A
C791        H795   1.084       .  S
C792        C793   1.398       .  A
C792        C820   1.475       .  S
C793        H796   1.085       .  S
C797        C798   1.408       .  A
C797        C802   1.406       .  A
C797       C2181   1.479       .  S
C798        C799   1.404       .  A
C798        H803   1.083       .  S
C799        C800   1.405       .  A
C799        C901   1.485       .  S
C800        C801   1.398       .  A
C800        H804   1.085       .  S
C801        C802   1.400       .  A
C801        C824   1.474       .  S
C802        H805   1.084       .  S
C806        C807   1.403       .  A
C806        C811   1.405       .  A
C806        C869   1.476       .  S
C807        C808   1.402       .  A
C807        H812   1.083       .  S
C808        C809   1.403       .  A
C808       C1877   1.472       .  S
C809        C810   1.401       .  A
C809        H813   1.084       .  S
C810        C811   1.399       .  A
C810        C856   1.473       .  S
C811        H814   1.084       .  S
O815       Mg817   2.166       .  S
O815       Mg823   2.147       .  S
O815        C850   1.235       .  S
C816        H855   1.081       .  S
C816        O829   1.237       .  S
C816        O853   1.273       .  A
Mg817       O846   2.143       .  S
Mg817       O861   2.295       .  S
Mg817       O857   2.276       .  S
Mg817       O828   2.298       .  S
O818       Mg860   2.145       .  S
O818       Mg843   2.166       .  S
O818        C839   1.238       .  S
O819        C850   1.272       .  A
O819       Mg843   2.316       .  S
C820        O822   1.271       .  A
C820        O834   1.275       .  A
O821        C849   1.271       .  A
O821       Mg823   2.305       .  S
O822       Mg854   2.262       .  S
Mg823       O829   2.166       .  S
Mg823       O837   2.271       .  S
Mg823       O825   2.304       .  S
C824        O862   1.269       .  A
C824        O830   1.272       .  A
O825        C832   1.274       .  A
H826        C839   1.081       .  S
C827        H852   1.081       .  S
C827        O841   1.236       .  S
C827        O842   1.270       .  A
O828        C851   1.270       .  A
O829       Mg843   2.149       .  S
O830       Mg860   2.307       .  S
C831        O844   1.267       .  A
C831        O836   1.282       .  A
C832        O859   1.277       .  A
Mg833       O840   2.137       .  S
Mg833       O841   2.140       .  S
Mg833       O834   2.313       .  S
Mg833       O835   2.316       .  S
Mg833       O862   2.257       .  S
O835        C839   1.274       .  A
O836       Mg843   2.347       .  S
O837        C856   1.271       .  A
O838        C858   1.274       .  A
O838       Mg854   2.305       .  S
O840       Mg854   2.146       .  S
O840        C851   1.235       .  S
O841       Mg860   2.147       .  S
O842       Mg854   2.302       .  S
Mg843       O859   2.315       .  S
O844       Mg860   2.249       .  S
H845        C850   1.081       .  S
O846       Mg854   2.144       .  S
O846        C849   1.236       .  S
H847        C849   1.081       .  S
H848        C851   1.081       .  S
O853       Mg860   2.315       .  S
C856        O861   1.273       .  A
O857        C858   1.273       .  A
C863        C864   1.361   1_556  D
C863       C1349   1.495       .  S
C863       C1365   1.498       .  S
C864        C866   1.499       .  S
C864        C885   1.496       .  S
C865        C866   1.408       .  A
C865        C870   1.404       .  A
C865        H872   1.082       .  S
C866        C867   1.418       .  A
C867        C868   1.397       .  A
C867        C874   1.497       .  S
C868        C869   1.397       .  A
C868        H873   1.085       .  S
C869        C870   1.411       .  A
C870        C871   1.507       .  S
C871        H875   1.111       .  S
C871        H876   1.110       .  S
C871        H877   1.109       .  S
C874        H878   1.110       .  S
C874        H879   1.088       .  S
C874        H880   1.110       .  S
C881        C882   1.399       .  A
C881        C886   1.398       .  A
C881        H888   1.085       .  S
C882        C883   1.410       .  A
C883        C884   1.409       .  A
C883        C890   1.505       .  S
C884        C885   1.408       .  A
C884        H889   1.083       .  S
C885        C886   1.415       .  A
C886        C887   1.502       .  S
C887        H891   1.110       .  S
C887        H892   1.099       .  S
C887        H893   1.110       .  S
C890        H894   1.110       .  S
C890        H895   1.110       .  S
C890        H896   1.111       .  S
C897        C898   1.404       .  A
C897        C902   1.394       .  A
C897        H904   1.079       .  S
C898        C899   1.420       .  A
C899        C900   1.409       .  A
C899        C906   1.505   1_455  S
C900        C901   1.403       .  A
C900        H905   1.084       .  S
C901        C902   1.413       .  A
C902        C903   1.509       .  S
C903        H907   1.111       .  S
C903        H908   1.110       .  S
C903        H909   1.109       .  S
C906        H910   1.105       .  S
C906        H911   1.110       .  S
C906        H912   1.110   1_655  S
C913        C914   1.402       .  A
C913        C918   1.405       .  A
C913        H920   1.084       .  S
C914        C915   1.413       .  A
C915        C916   1.400       .  A
C915        C922   1.509       .  S
C916        C917   1.403       .  A
C916        H921   1.081   1_455  S
C917        C918   1.415       .  A
C918        C919   1.501       .  S
C919        H923   1.111       .  S
C919        H924   1.107   1_455  S
C919        H925   1.102       .  S
C922        H926   1.110       .  S
C922        H927   1.107       .  S
C922        H928   1.111       .  S
C929        C930   1.397       .  A
C929        C934   1.400       .  A
C929        H936   1.085       .  S
C930        C931   1.408       .  A
C931        C932   1.406       .  A
C931        C938   1.505       .  S
C932        C933   1.409       .  A
C932        H937   1.082       .  S
C933        C934   1.419       .  A
C934        C935   1.501       .  S
C935        H939   1.111       .  S
C935        H940   1.102       .  S
C935        H941   1.098       .  S
C938        H942   1.109       .  S
C938        H943   1.111       .  S
C938        H944   1.111       .  S
C945        C946   1.400       .  A
C945        C950   1.403       .  A
C945        H952   1.085       .  S
C946        C947   1.409       .  A
C947        C948   1.401       .  A
C947        C954   1.508       .  S
C948        C949   1.407       .  A
C948        H953   1.080       .  S
C949        C950   1.420       .  A
C950        C951   1.504       .  S
C951        H955   1.110       .  S
C951        H956   1.111       .  S
C951        H957   1.102       .  S
C954        H958   1.110       .  S
C954        H959   1.110       .  S
C954        H960   1.111       .  S
C961        C962   1.398       .  A
C961        C966   1.402       .  A
C961        H968   1.085       .  S
C962        C963   1.412       .  A
C963        C964   1.405       .  A
C963        C970   1.507       .  S
C964        C965   1.406       .  A
C964        H969   1.082       .  S
C965        C966   1.418       .  A
C966        C967   1.499       .  S
C967        H971   1.110       .  S
C967        H972   1.110       .  S
C967        H973   1.096       .  S
C970        H974   1.109       .  S
C970        H975   1.110       .  S
C970        H976   1.111       .  S
C977        C978   1.403       .  A
C977        C982   1.395       .  A
C977        H984   1.078       .  S
C978        C979   1.416       .  A
C979        C980   1.406       .  A
C979        C986   1.502       .  S
C980        C981   1.405       .  A
C980        H985   1.084       .  S
C981        C982   1.414       .  A
C982        C983   1.508       .  S
C983        H987   1.111       .  S
C983        H988   1.109       .  S
C983        H989   1.110       .  S
C986        H990   1.110       .  S
C986        H991   1.102       .  S
C986        H992   1.110       .  S
C993        C994   1.397       .  A
C993        C998   1.402       .  A
C993       H1000   1.085       .  S
C994        C995   1.410       .  A
C995        C996   1.404       .  A
C995       C1002   1.507       .  S
C996        C997   1.406       .  A
C996       H1001   1.078   1_545  S
C997        C998   1.420       .  A
C998        C999   1.502       .  S
C999       H1003   1.110       .  S
C999       H1004   1.100   1_545  S
C999       H1005   1.111       .  S
C1002      H1006   1.110       .  S
C1002      H1007   1.110       .  S
C1002      H1008   1.111       .  S
C1009      C1010   1.403       .  A
C1009      C1014   1.399       .  A
C1009      H1016   1.085       .  S
C1010      C1011   1.416       .  A
C1011      C1012   1.405       .  A
C1011      C1018   1.508       .  S
C1012      C1013   1.404       .  A
C1012      H1017   1.077       .  S
C1013      C1014   1.417       .  A
C1014      C1015   1.504       .  S
C1015      H1019   1.111   1_545  S
C1015      H1020   1.099   1_545  S
C1015      H1021   1.111       .  S
C1018      H1022   1.107       .  S
C1018      H1023   1.110       .  S
C1018      H1024   1.111       .  S
C1025      C1026   1.407       .  A
C1025      C1030   1.410       .  A
C1025      H1032   1.084       .  S
C1026      C1027   1.416       .  A
C1027      C1028   1.392       .  A
C1027      C1034   1.504       .  S
C1028      C1029   1.402       .  A
C1028      H1033   1.085       .  S
C1029      C1030   1.417       .  A
C1030      C1031   1.506       .  S
C1031      H1035   1.111       .  S
C1031      H1036   1.108       .  S
C1031      H1037   1.110       .  S
C1034      H1038   1.110       .  S
C1034      H1039   1.092       .  S
C1034      H1040   1.111       .  S
C1041      C1042   1.400       .  A
C1041      C1046   1.405       .  A
C1041      H1048   1.085       .  S
C1042      C1043   1.405       .  A
C1043      C1044   1.400       .  A
C1043      C1050   1.506       .  S
C1044      C1045   1.409       .  A
C1044      H1049   1.082       .  S
C1045      C1046   1.420       .  A
C1046      C1047   1.503       .  S
C1047      H1051   1.110       .  S
C1047      H1052   1.111       .  S
C1047      H1053   1.100       .  S
C1050      H1054   1.110       .  S
C1050      H1055   1.110       .  S
C1050      H1056   1.111       .  S
C1057      C1058   1.405       .  A
C1057      C1062   1.402       .  A
C1057      H1064   1.079       .  S
C1058      C1059   1.413       .  A
C1059      C1060   1.402       .  A
C1059      C1066   1.500       .  S
C1060      C1061   1.402       .  A
C1060      H1065   1.084       .  S
C1061      C1062   1.412       .  A
C1062      C1063   1.508       .  S
C1063      H1067   1.111       .  S
C1063      H1068   1.108       .  S
C1063      H1069   1.110       .  S
C1066      H1070   1.110       .  S
C1066      H1071   1.105       .  S
C1066      H1072   1.110       .  S
C1073      C1074   1.403       .  A
C1073      C1078   1.397       .  A
C1073      H1080   1.083       .  S
C1074      C1075   1.416       .  A
C1075      C1076   1.407       .  A
C1075      C1082   1.504       .  S
C1076      C1077   1.403       .  A
C1076      H1081   1.084       .  S
C1077      C1078   1.416       .  A
C1078      C1079   1.509       .  S
C1079      H1083   1.111       .  S
C1079      H1084   1.108       .  S
C1079      H1085   1.111       .  S
C1082      H1086   1.107       .  S
C1082      H1087   1.100       .  S
C1082      H1088   1.111       .  S
C1089      C1090   1.399       .  A
C1089      C1094   1.399       .  A
C1089      H1096   1.085       .  S
C1090      C1091   1.410       .  A
C1091      C1092   1.405   1_455  A
C1091      C1098   1.506       .  S
C1092      C1093   1.406       .  A
C1092      H1097   1.082       .  S
C1093      C1094   1.416   1_655  A
C1094      C1095   1.504       .  S
C1095      H1099   1.110       .  S
C1095      H1100   1.110       .  S
C1095      H1101   1.106       .  S
C1098      H1102   1.110       .  S
C1098      H1103   1.110       .  S
C1098      H1104   1.111   1_455  S
C1105      C1106   1.404       .  A
C1105      C1110   1.397       .  A
C1105      H1112   1.085       .  S
C1106      C1107   1.416       .  A
C1107      C1108   1.407       .  A
C1107      C1114   1.507       .  S
C1108      C1109   1.403       .  A
C1108      H1113   1.081   1_455  S
C1109      C1110   1.415       .  A
C1110      C1111   1.506       .  S
C1111      H1115   1.111       .  S
C1111      H1116   1.111       .  S
C1111      H1117   1.103   1_455  S
C1114      H1118   1.110       .  S
C1114      H1119   1.107       .  S
C1114      H1120   1.111       .  S
C1121      C1122   1.399       .  A
C1121      C1126   1.402       .  A
C1121      H1128   1.084       .  S
C1122      C1123   1.409       .  A
C1123      C1124   1.404       .  A
C1123      C1130   1.506       .  S
C1124      C1125   1.409       .  A
C1124      H1129   1.082       .  S
C1125      C1126   1.417       .  A
C1126      C1127   1.509       .  S
C1127      H1131   1.111       .  S
C1127      H1132   1.107       .  S
C1127      H1133   1.108       .  S
C1130      H1134   1.110       .  S
C1130      H1135   1.110       .  S
C1130      H1136   1.111       .  S
C1137      C1138   1.410       .  A
C1137      C1142   1.415       .  A
C1137      H1144   1.083       .  S
C1138      C1139   1.409       .  A
C1139      C1140   1.382       .  A
C1139      C1146   1.511       .  S
C1140      C1141   1.409       .  A
C1140      H1145   1.079       .  S
C1141      C1142   1.424       .  A
C1142      C1143   1.502       .  S
C1143      H1147   1.111       .  S
C1143      H1148   1.110       .  S
C1143      H1149   1.107       .  S
C1146      H1150   1.110       .  S
C1146      H1151   1.107       .  S
C1146      H1152   1.110       .  S
C1153      C1154   1.405       .  A
C1153      C1158   1.396       .  A
C1153      H1160   1.080       .  S
C1154      C1155   1.416       .  A
C1155      C1156   1.407       .  A
C1155      C1162   1.506   1_545  S
C1156      C1157   1.405       .  A
C1156      H1161   1.084       .  S
C1157      C1158   1.410       .  A
C1158      C1159   1.510       .  S
C1159      H1163   1.111       .  S
C1159      H1164   1.109       .  S
C1159      H1165   1.110       .  S
C1162      H1166   1.110       .  S
C1162      H1167   1.106       .  S
C1162      H1168   1.111       .  S
C1169      C1170   1.401       .  A
C1169      C1174   1.395       .  A
C1169      H1176   1.083       .  S
C1170      C1171   1.413       .  A
C1171      C1172   1.406       .  A
C1171      C1178   1.505       .  S
C1172      C1173   1.404       .  A
C1172      H1177   1.084       .  S
C1173      C1174   1.414       .  A
C1174      C1175   1.509       .  S
C1175      H1179   1.110       .  S
C1175      H1180   1.108       .  S
C1175      H1181   1.110       .  S
C1178      H1182   1.107   1_545  S
C1178      H1183   1.107   1_545  S
C1178      H1184   1.110       .  S
C1185      C1186   1.417       .  A
C1185      C1190   1.382       .  A
C1185      H1192   1.070       .  S
C1186      C1187   1.431       .  A
C1187      C1188   1.417       .  A
C1187      C1194   1.500       .  S
C1188      C1189   1.404       .  A
C1188      H1193   1.084       .  S
C1189      C1190   1.406       .  A
C1190      C1191   1.513       .  S
C1191      H1195   1.111       .  S
C1191      H1196   1.109       .  S
C1191      H1197   1.109       .  S
C1194      H1198   1.111       .  S
C1194      H1199   1.104       .  S
C1194      H1200   1.110   1_554  S
C1201      C1202   1.405       .  A
C1201      C1206   1.407       .  A
C1201      H1208   1.084       .  S
C1202      C1203   1.421       .  A
C1203      C1204   1.403       .  A
C1203      C1210   1.502       .  S
C1204      C1205   1.399       .  A
C1204      H1209   1.084       .  S
C1205      C1206   1.413       .  A
C1206      C1207   1.506       .  S
C1207      H1211   1.111       .  S
C1207      H1212   1.110       .  S
C1207      H1213   1.109       .  S
C1210      H1214   1.110       .  S
C1210      H1215   1.105   1_554  S
C1210      H1216   1.111       .  S
C1217      C1218   1.406       .  A
C1217      C1222   1.406       .  A
C1217      H1224   1.084       .  S
C1218      C1219   1.412       .  A
C1219      C1220   1.393       .  A
C1219      C1226   1.509       .  S
C1220      C1221   1.404   1_455  A
C1220      H1225   1.080       .  S
C1221      C1222   1.416   1_655  A
C1222      C1223   1.501   1_455  S
C1223      H1227   1.110   1_655  S
C1223      H1228   1.110       .  S
C1223      H1229   1.101       .  S
C1226      H1230   1.109       .  S
C1226      H1231   1.110       .  S
C1226      H1232   1.111       .  S
C1233      C1234   1.405       .  A
C1233      C1238   1.402       .  A
C1233      H1240   1.082   1_455  S
C1234      C1235   1.416       .  A
C1235      C1236   1.401       .  A
C1235      C1242   1.502       .  S
C1236      C1237   1.397       .  A
C1236      H1241   1.084       .  S
C1237      C1238   1.411       .  A
C1238      C1239   1.507       .  S
C1239      H1243   1.111       .  S
C1239      H1244   1.109       .  S
C1239      H1245   1.110       .  S
C1242      H1246   1.110       .  S
C1242      H1247   1.103   1_455  S
C1242      H1248   1.110       .  S
C1249      C1250   1.403       .  A
C1249      C1254   1.396       .  A
C1249      H1256   1.085       .  S
C1250      C1251   1.418       .  A
C1251      C1252   1.410       .  A
C1251      C1258   1.506       .  S
C1252      C1253   1.407       .  A
C1252      H1257   1.083       .  S
C1253      C1254   1.418       .  A
C1254      C1255   1.507       .  S
C1255      H1259   1.111       .  S
C1255      H1260   1.111       .  S
C1255      H1261   1.102       .  S
C1258      H1262   1.107       .  S
C1258      H1263   1.110       .  S
C1258      H1264   1.111       .  S
C1265      C1266   1.396       .  A
C1265      C1270   1.396       .  A
C1265      H1272   1.085       .  S
C1266      C1267   1.413       .  A
C1267      C1268   1.407       .  A
C1267      C1274   1.505       .  S
C1268      C1269   1.406       .  A
C1268      H1273   1.083       .  S
C1269      C1270   1.421       .  A
C1270      C1271   1.507       .  S
C1271      H1275   1.110       .  S
C1271      H1276   1.111       .  S
C1271      H1277   1.106       .  S
C1274      H1278   1.109       .  S
C1274      H1279   1.110       .  S
C1274      H1280   1.110       .  S
C1281      C1282   1.402       .  A
C1281      C1286   1.417       .  A
C1281      H1288   1.082       .  S
C1282      C1283   1.410       .  A
C1283      C1284   1.401       .  A
C1283      C1290   1.510       .  S
C1284      C1285   1.410       .  A
C1284      H1289   1.070       .  S
C1285      C1286   1.426       .  A
C1286      C1287   1.500   1_545  S
C1287      H1291   1.106       .  S
C1287      H1292   1.108       .  S
C1287      H1293   1.110       .  S
C1290      H1294   1.108       .  S
C1290      H1295   1.112       .  S
C1290      H1296   1.109       .  S
C1297      C1298   1.402       .  A
C1297      C1302   1.404       .  A
C1297      H1304   1.083       .  S
C1298      C1299   1.419       .  A
C1299      C1300   1.404       .  A
C1299      C1306   1.504       .  S
C1300      C1301   1.403       .  A
C1300      H1305   1.084       .  S
C1301      C1302   1.417       .  A
C1302      C1303   1.509       .  S
C1303      H1307   1.111       .  S
C1303      H1308   1.110       .  S
C1303      H1309   1.106       .  S
C1306      H1310   1.102   1_545  S
C1306      H1311   1.111       .  S
C1306      H1312   1.110   1_545  S
C1313      C1314   1.398       .  A
C1313      C1318   1.401       .  A
C1313      H1320   1.085       .  S
C1314      C1315   1.413       .  A
C1315      C1316   1.408       .  A
C1315      C1322   1.506       .  S
C1316      C1317   1.408       .  A
C1316      H1321   1.083       .  S
C1317      C1318   1.419       .  A
C1318      C1319   1.501       .  S
C1319      H1323   1.111       .  S
C1319      H1324   1.110       .  S
C1319      H1325   1.096       .  S
C1322      H1326   1.109       .  S
C1322      H1327   1.110       .  S
C1322      H1328   1.111       .  S
C1329      C1330   1.406       .  A
C1329      C1334   1.411       .  A
C1329      H1336   1.084       .  S
C1330      C1331   1.412       .  A
C1331      C1332   1.397       .  A
C1331      C1338   1.510       .  S
C1332      C1333   1.407       .  A
C1332      H1337   1.083       .  S
C1333      C1334   1.416       .  A
C1334      C1335   1.503       .  S
C1335      H1339   1.110       .  S
C1335      H1340   1.110       .  S
C1335      H1341   1.107       .  S
C1338      H1342   1.110       .  S
C1338      H1343   1.107       .  S
C1338      H1344   1.111       .  S
C1345      C1346   1.398       .  A
C1345      C1350   1.401       .  A
C1345      H1352   1.084       .  S
C1346      C1347   1.411       .  A
C1347      C1348   1.403       .  A
C1347      C1354   1.506       .  S
C1348      C1349   1.403       .  A
C1348      H1353   1.079       .  S
C1349      C1350   1.415       .  A
C1350      C1351   1.503       .  S
C1351      H1355   1.110       .  S
C1351      H1356   1.108       .  S
C1351      H1357   1.110       .  S
C1354      H1358   1.110       .  S
C1354      H1359   1.110       .  S
C1354      H1360   1.111       .  S
C1361      C1362   1.406       .  A
C1361      C1366   1.394       .  A
C1361      H1368   1.085       .  S
C1362      C1363   1.421       .  A
C1363      C1364   1.411       .  A
C1363      C1370   1.506       .  S
C1364      C1365   1.405       .  A
C1364      H1369   1.081       .  S
C1365      C1366   1.416       .  A
C1366      C1367   1.507       .  S
C1367      H1371   1.111       .  S
C1367      H1372   1.098       .  S
C1367      H1373   1.111       .  S
C1370      H1374   1.107       .  S
C1370      H1375   1.110       .  S
C1370      H1376   1.111       .  S
C1377      C1378   1.404       .  A
C1377      C1382   1.405       .  A
C1377      H1384   1.084       .  S
C1378      C1379   1.411       .  A
C1379      C1380   1.397       .  A
C1379      C1386   1.508       .  S
C1380      C1381   1.403       .  A
C1380      H1385   1.078       .  S
C1381      C1382   1.414       .  A
C1382      C1383   1.503       .  S
C1383      H1387   1.111       .  S
C1383      H1388   1.107       .  S
C1383      H1389   1.100       .  S
C1386      H1390   1.109       .  S
C1386      H1391   1.110       .  S
C1386      H1392   1.110       .  S
C1393      C1394   1.407       .  A
C1393      C1398   1.404       .  A
C1393      H1400   1.077       .  S
C1394      C1395   1.419       .  A
C1395      C1396   1.399       .  A
C1395      C1402   1.501       .  S
C1396      C1397   1.400       .  A
C1396      H1401   1.085       .  S
C1397      C1398   1.408       .  A
C1398      C1399   1.507       .  S
C1399      H1403   1.111       .  S
C1399      H1404   1.109       .  S
C1399      H1405   1.110       .  S
C1402      H1406   1.111       .  S
C1402      H1407   1.094       .  S
C1402      H1408   1.111       .  S
C1409      C1410   1.406       .  A
C1409      C1414   1.412       .  A
C1409      H1416   1.083       .  S
C1410      C1411   1.414       .  A
C1411      C1412   1.395       .  A
C1411      C1418   1.509       .  S
C1412      C1413   1.403       .  A
C1412      H1417   1.082       .  S
C1413      C1414   1.416       .  A
C1414      C1415   1.506       .  S
C1415      H1419   1.110       .  S
C1415      H1420   1.106       .  S
C1415      H1421   1.107   1_556  S
C1418      H1422   1.110       .  S
C1418      H1423   1.108       .  S
C1418      H1424   1.111       .  S
C1425      C1426   1.399       .  A
C1425      C1430   1.400       .  A
C1425      H1432   1.085       .  S
C1426      C1427   1.409       .  A
C1427      C1428   1.402       .  A
C1427      C1434   1.507       .  S
C1428      C1429   1.406       .  A
C1428      H1433   1.079       .  S
C1429      C1430   1.418       .  A
C1430      C1431   1.501       .  S
C1431      H1435   1.110       .  S
C1431      H1436   1.099       .  S
C1431      H1437   1.110       .  S
C1434      H1438   1.110       .  S
C1434      H1439   1.109       .  S
C1434      H1440   1.111       .  S
C1441      C1442   1.406       .  A
C1441      C1446   1.404       .  A
C1441      H1448   1.082   1_455  S
C1442      C1443   1.416       .  A
C1443      C1444   1.400       .  A
C1443      C1450   1.503       .  S
C1444      C1445   1.399       .  A
C1444      H1449   1.085       .  S
C1445      C1446   1.410       .  A
C1446      C1447   1.506       .  S
C1447      H1451   1.111       .  S
C1447      H1452   1.109       .  S
C1447      H1453   1.110       .  S
C1450      H1454   1.110       .  S
C1450      H1455   1.102       .  S
C1450      H1456   1.111       .  S
C1457      C1458   1.405       .  A
C1457      C1462   1.397       .  A
C1457      H1464   1.082       .  S
C1458      C1459   1.419       .  A
C1459      C1460   1.408       .  A
C1459      C1466   1.503   1_455  S
C1460      C1461   1.403       .  A
C1460      H1465   1.084       .  S
C1461      C1462   1.413       .  A
C1462      C1463   1.507       .  S
C1463      H1467   1.111       .  S
C1463      H1468   1.109       .  S
C1463      H1469   1.110       .  S
C1466      H1470   1.110       .  S
C1466      H1471   1.103       .  S
C1466      H1472   1.110   1_655  S
C1473      C1474   1.404       .  A
C1473      C1478   1.395       .  A
C1473      H1480   1.084       .  S
C1474      C1475   1.415       .  A
C1475      C1476   1.407       .  A
C1475      C1482   1.503   1_545  S
C1476      C1477   1.405       .  A
C1476      H1481   1.084       .  S
C1477      C1478   1.414       .  A
C1478      C1479   1.509       .  S
C1479      H1483   1.111       .  S
C1479      H1484   1.111       .  S
C1479      H1485   1.108       .  S
C1482      H1486   1.104       .  S
C1482      H1487   1.110       .  S
C1482      H1488   1.110   1_565  S
C1489      C1490   1.406       .  A
C1489      C1494   1.401       .  A
C1489      H1496   1.081   1_545  S
C1490      C1491   1.415       .  A
C1491      C1492   1.399       .  A
C1491      C1498   1.503       .  S
C1492      C1493   1.399       .  A
C1492      H1497   1.085       .  S
C1493      C1494   1.410       .  A
C1494      C1495   1.507       .  S
C1495      H1499   1.111       .  S
C1495      H1500   1.110       .  S
C1495      H1501   1.109       .  S
C1498      H1502   1.103       .  S
C1498      H1503   1.110       .  S
C1498      H1504   1.110       .  S
C1505      C1506   1.408       .  A
C1505      C1510   1.411       .  A
C1505      H1512   1.084       .  S
C1506      C1507   1.416       .  A
C1507      C1508   1.394       .  A
C1507      C1514   1.503       .  S
C1508      C1509   1.401       .  A
C1508      H1513   1.085       .  S
C1509      C1510   1.416       .  A
C1510      C1511   1.506       .  S
C1511      H1515   1.111       .  S
C1511      H1516   1.108       .  S
C1511      H1517   1.110       .  S
C1514      H1518   1.111       .  S
C1514      H1519   1.096       .  S
C1514      H1520   1.111       .  S
C1521      C1522   1.393       .  A
C1521      C1526   1.401       .  A
C1521      H1528   1.085       .  S
C1522      C1523   1.405       .  A
C1523      C1524   1.403       .  A
C1523      C1530   1.506       .  S
C1524      C1525   1.412       .  A
C1524      H1529   1.082       .  S
C1525      C1526   1.426       .  A
C1526      C1527   1.500       .  S
C1527      H1531   1.111       .  S
C1527      H1532   1.094       .  S
C1527      H1533   1.104   1_554  S
C1530      H1534   1.110       .  S
C1530      H1535   1.110       .  S
C1530      H1536   1.111       .  S
C1537      C1538   1.406       .  A
C1537      C1542   1.407       .  A
C1537      H1544   1.083       .  S
C1538      C1539   1.414       .  A
C1539      C1540   1.394       .  A
C1539      C1546   1.509       .  S
C1540      C1541   1.401       .  A
C1540      H1545   1.078       .  S
C1541      C1542   1.415       .  A
C1542      C1543   1.505       .  S
C1543      H1547   1.110       .  S
C1543      H1548   1.102       .  S
C1543      H1549   1.107       .  S
C1546      H1550   1.110       .  S
C1546      H1551   1.109       .  S
C1546      H1552   1.111       .  S
C1553      C1554   1.401       .  A
C1553      C1558   1.407       .  A
C1553      H1560   1.084       .  S
C1554      C1555   1.405       .  A
C1555      C1556   1.401       .  A
C1555      C1562   1.507       .  S
C1556      C1557   1.407       .  A
C1556      H1561   1.076       .  S
C1557      C1558   1.419       .  A
C1558      C1559   1.505       .  S
C1559      H1563   1.111       .  S
C1559      H1564   1.103       .  S
C1559      H1565   1.106       .  S
C1562      H1566   1.110       .  S
C1562      H1567   1.110       .  S
C1562      H1568   1.111       .  S
C1569      C1570   1.401       .  A
C1569      C1574   1.401       .  A
C1569      H1576   1.085       .  S
C1570      C1571   1.410       .  A
C1571      C1572   1.400       .  A
C1571      C1578   1.508       .  S
C1572      C1573   1.404       .  A
C1572      H1577   1.079       .  S
C1573      C1574   1.418       .  A
C1574      C1575   1.506       .  S
C1575      H1579   1.110       .  S
C1575      H1580   1.102       .  S
C1575      H1581   1.111       .  S
C1578      H1582   1.109       .  S
C1578      H1583   1.110       .  S
C1578      H1584   1.111       .  S
C1585      C1586   1.403       .  A
C1585      C1590   1.408       .  A
C1585      H1592   1.084       .  S
C1586      C1587   1.414       .  A
C1587      C1588   1.402       .  A
C1587      C1594   1.509       .  S
C1588      C1589   1.403       .  A
C1588      H1593   1.081       .  S
C1589      C1590   1.415       .  A
C1590      C1591   1.504       .  S
C1591      H1595   1.111       .  S
C1591      H1596   1.107       .  S
C1591      H1597   1.105       .  S
C1594      H1598   1.110       .  S
C1594      H1599   1.107       .  S
C1594      H1600   1.111       .  S
C1601      C1602   1.404       .  A
C1601      C1606   1.389       .  A
C1601      H1608   1.085       .  S
C1602      C1603   1.416       .  A
C1603      C1604   1.409       .  A
C1603      C1610   1.506       .  S
C1604      C1605   1.407       .  A
C1604      H1609   1.083       .  S
C1605      C1606   1.412       .  A
C1606      C1607   1.505       .  S
C1607      H1611   1.110       .  S
C1607      H1612   1.111       .  S
C1607      H1613   1.099       .  S
C1610      H1614   1.108       .  S
C1610      H1615   1.110       .  S
C1610      H1616   1.111       .  S
C1617      C1618   1.399       .  A
C1617      C1622   1.405       .  A
C1617      H1624   1.085       .  S
C1618      C1619   1.407       .  A
C1619      C1620   1.406       .  A
C1619      C1626   1.505       .  S
C1620      C1621   1.410       .  A
C1620      H1625   1.082       .  S
C1621      C1622   1.420       .  A
C1622      C1623   1.499       .  S
C1623      H1627   1.110       .  S
C1623      H1628   1.110       .  S
C1623      H1629   1.095       .  S
C1626      H1630   1.110       .  S
C1626      H1631   1.110       .  S
C1626      H1632   1.111       .  S
C1633      C1634   1.403       .  A
C1633      C1638   1.398       .  A
C1633      H1640   1.085       .  S
C1634      C1635   1.416       .  A
C1635      C1636   1.409       .  A
C1635      C1642   1.507       .  S
C1636      C1637   1.405       .  A
C1636      H1641   1.082       .  S
C1637      C1638   1.415       .  A
C1638      C1639   1.504       .  S
C1639      H1643   1.110       .  S
C1639      H1644   1.100       .  S
C1639      H1645   1.111       .  S
C1642      H1646   1.108       .  S
C1642      H1647   1.110       .  S
C1642      H1648   1.111       .  S
C1649      C1650   1.404       .  A
C1649      C1654   1.403       .  A
C1649      H1656   1.078       .  S
C1650      C1651   1.414       .  A
C1651      C1652   1.402       .  A
C1651      C1658   1.504       .  S
C1652      C1653   1.401       .  A
C1652      H1657   1.084       .  S
C1653      C1654   1.411       .  A
C1654      C1655   1.507       .  S
C1655      H1659   1.111       .  S
C1655      H1660   1.110       .  S
C1655      H1661   1.109       .  S
C1658      H1662   1.107       .  S
C1658      H1663   1.110       .  S
C1658      H1664   1.110       .  S
C1665      C1666   1.407       .  A
C1665      C1670   1.409       .  A
C1665      H1672   1.081       .  S
C1666      C1667   1.414       .  A
C1667      C1668   1.396       .  A
C1667      C1674   1.504       .  S
C1668      C1669   1.403       .  A
C1668      H1673   1.085       .  S
C1669      C1670   1.413       .  A
C1670      C1671   1.505       .  S
C1671      H1675   1.111       .  S
C1671      H1676   1.108       .  S
C1671      H1677   1.110       .  S
C1674      H1678   1.099       .  S
C1674      H1679   1.111       .  S
C1674      H1680   1.110       .  S
C1681      C1682   1.404       .  A
C1681      C1686   1.404       .  A
C1681      H1688   1.079       .  S
C1682      C1683   1.415       .  A
C1683      C1684   1.403       .  A
C1683      C1690   1.503       .  S
C1684      C1685   1.401       .  A
C1684      H1689   1.084       .  S
C1685      C1686   1.412       .  A
C1686      C1687   1.507       .  S
C1687      H1691   1.111       .  S
C1687      H1692   1.110       .  S
C1687      H1693   1.109       .  S
C1690      H1694   1.107       .  S
C1690      H1695   1.110       .  S
C1690      H1696   1.110       .  S
C1697      C1698   1.408       .  A
C1697      C1702   1.411       .  A
C1697      H1704   1.084       .  S
C1698      C1699   1.416       .  A
C1699      C1700   1.392       .  A
C1699      C1706   1.504       .  S
C1700      C1701   1.400       .  A
C1700      H1705   1.085       .  S
C1701      C1702   1.414       .  A
C1702      C1703   1.505       .  S
C1703      H1707   1.111       .  S
C1703      H1708   1.108       .  S
C1703      H1709   1.110       .  S
C1706      H1710   1.097       .  S
C1706      H1711   1.110       .  S
C1706      H1712   1.111       .  S
C1713      C1714   1.398       .  A
C1713      C1718   1.400       .  A
C1713      H1720   1.085       .  S
C1714      C1715   1.408       .  A
C1715      C1716   1.404       .  A
C1715      C1722   1.506       .  S
C1716      C1717   1.410       .  A
C1716      H1721   1.082       .  S
C1717      C1718   1.421       .  A
C1718      C1719   1.498       .  S
C1719      H1723   1.110       .  S
C1719      H1724   1.090       .  S
C1719      H1725   1.110       .  S
C1722      H1726   1.111       .  S
C1722      H1727   1.110       .  S
C1722      H1728   1.111       .  S
C1729      C1730   1.408       .  A
C1729      C1734   1.410       .  A
C1729      H1736   1.084       .  S
C1730      C1731   1.414       .  A
C1731      C1732   1.390       .  A
C1731      C1738   1.505       .  S
C1732      C1733   1.403       .  A
C1732      H1737   1.085       .  S
C1733      C1734   1.417       .  A
C1734      C1735   1.506       .  S
C1735      H1739   1.111       .  S
C1735      H1740   1.108       .  S
C1735      H1741   1.110       .  S
C1738      H1742   1.096       .  S
C1738      H1743   1.111       .  S
C1738      H1744   1.111       .  S
C1745      C1746   1.411       .  A
C1745      C1750   1.402       .  A
C1745      H1752   1.082       .  S
C1746      C1747   1.424       .  A
C1747      C1748   1.409       .  A
C1747      C1754   1.504       .  S
C1748      C1749   1.399       .  A
C1748      H1753   1.084       .  S
C1749      C1750   1.405       .  A
C1750      C1751   1.506       .  S
C1751      H1755   1.111       .  S
C1751      H1756   1.110       .  S
C1751      H1757   1.110       .  S
C1754      H1758   1.097       .  S
C1754      H1759   1.107       .  S
C1754      H1760   1.111       .  S
C1761      C1762   1.398       .  A
C1761      C1766   1.401       .  A
C1761      H1768   1.085       .  S
C1762      C1763   1.406       .  A
C1763      C1764   1.400       .  A
C1763      C1770   1.507       .  S
C1764      C1765   1.405       .  A
C1764      H1769   1.073       .  S
C1765      C1766   1.418       .  A
C1766      C1767   1.502       .  S
C1767      H1771   1.111       .  S
C1767      H1772   1.110       .  S
C1767      H1773   1.102       .  S
C1770      H1774   1.109       .  S
C1770      H1775   1.110       .  S
C1770      H1776   1.111       .  S
C1777      C1778   1.405       .  A
C1777      C1782   1.408       .  A
C1777      H1784   1.080       .  S
C1778      C1779   1.418       .  A
C1779      C1780   1.399       .  A
C1779      C1786   1.505       .  S
C1780      C1781   1.399       .  A
C1780      H1785   1.085       .  S
C1781      C1782   1.413       .  A
C1782      C1783   1.506       .  S
C1783      H1787   1.111       .  S
C1783      H1788   1.110       .  S
C1783      H1789   1.108       .  S
C1786      H1790   1.101       .  S
C1786      H1791   1.105       .  S
C1786      H1792   1.111       .  S
C1793      C1794   1.403       .  A
C1793      C1798   1.403       .  A
C1793      H1800   1.077       .  S
C1794      C1795   1.418       .  A
C1795      C1796   1.403       .  A
C1795      C1802   1.503       .  S
C1796      C1797   1.398       .  A
C1796      H1801   1.084       .  S
C1797      C1798   1.412       .  A
C1798      C1799   1.508       .  S
C1799      H1803   1.111       .  S
C1799      H1804   1.109       .  S
C1799      H1805   1.110       .  S
C1802      H1806   1.110       .  S
C1802      H1807   1.103       .  S
C1802      H1808   1.110       .  S
C1809      C1810   1.404       .  A
C1809      C1814   1.407       .  A
C1809      H1816   1.080       .  S
C1810      C1811   1.416       .  A
C1811      C1812   1.394       .  A
C1811      C1818   1.505       .  S
C1812      C1813   1.402       .  A
C1812      H1817   1.085       .  S
C1813      C1814   1.416       .  A
C1814      C1815   1.507       .  S
C1815      H1819   1.111       .  S
C1815      H1820   1.110       .  S
C1815      H1821   1.108       .  S
C1818      H1822   1.110       .  S
C1818      H1823   1.099       .  S
C1818      H1824   1.111       .  S
C1825      C1826   1.401       .  A
C1825      C1830   1.390       .  A
C1825      H1832   1.085       .  S
C1826      C1827   1.417       .  A
C1827      C1828   1.409       .  A
C1827      C1834   1.506       .  S
C1828      C1829   1.405       .  A
C1828      H1833   1.080       .  S
C1829      C1830   1.416       .  A
C1830      C1831   1.504       .  S
C1831      H1835   1.111       .  S
C1831      H1836   1.096       .  S
C1831      H1837   1.111       .  S
C1834      H1838   1.108       .  S
C1834      H1839   1.110       .  S
C1834      H1840   1.111       .  S
C1841      C1842   1.403       .  A
C1841      C1846   1.405       .  A
C1841      H1848   1.078       .  S
C1842      C1843   1.419       .  A
C1843      C1844   1.405       .  A
C1843      C1850   1.505       .  S
C1844      C1845   1.400       .  A
C1844      H1849   1.084       .  S
C1845      C1846   1.413       .  A
C1846      C1847   1.507       .  S
C1847      H1851   1.111       .  S
C1847      H1852   1.110       .  S
C1847      H1853   1.109       .  S
C1850      H1854   1.107       .  S
C1850      H1855   1.110       .  S
C1850      H1856   1.110       .  S
C1857      C1858   1.396       .  A
C1857      C1862   1.397       .  A
C1857      H1864   1.085       .  S
C1858      C1859   1.414       .  A
C1859      C1860   1.407       .  A
C1859      C1866   1.507       .  S
C1860      C1861   1.407       .  A
C1860      H1865   1.081       .  S
C1861      C1862   1.418       .  A
C1862      C1863   1.500       .  S
C1863      H1867   1.111       .  S
C1863      H1868   1.103       .  S
C1863      H1869   1.101       .  S
C1866      H1870   1.108       .  S
C1866      H1871   1.110       .  S
C1866      H1872   1.111       .  S
C1873      C1874   1.410       .  A
C1873      C1878   1.402       .  A
C1873      H1880   1.080       .  S
C1874      C1875   1.420       .  A
C1875      C1876   1.404       .  A
C1875      C1882   1.501       .  S
C1876      C1877   1.398       .  A
C1876      H1881   1.084       .  S
C1877      C1878   1.404       .  A
C1878      C1879   1.506       .  S
C1879      H1883   1.111       .  S
C1879      H1884   1.110       .  S
C1879      H1885   1.110       .  S
C1882      H1886   1.096       .  S
C1882      H1887   1.106       .  S
C1882      H1888   1.111       .  S
C1889      C1890   1.403       .  A
C1889      C1894   1.399       .  A
C1889      H1896   1.079       .  S
C1890      C1891   1.418       .  A
C1891      C1892   1.405       .  A
C1891      C1898   1.504       .  S
C1892      C1893   1.400       .  A
C1892      H1897   1.084       .  S
C1893      C1894   1.413       .  A
C1894      C1895   1.508       .  S
C1895      H1899   1.110       .  S
C1895      H1900   1.111       .  S
C1895      H1901   1.109       .  S
C1898      H1902   1.105       .  S
C1898      H1903   1.110       .  S
C1898      H1904   1.110       .  S
C1905      C1906   1.407       .  A
C1905      C1910   1.406       .  A
C1905      H1912   1.079       .  S
C1906      C1907   1.421       .  A
C1907      C1908   1.397       .  A
C1907      C1914   1.499       .  S
C1908      C1909   1.397       .  A
C1908      H1913   1.085       .  S
C1909      C1910   1.411       .  A
C1910      C1911   1.507       .  S
C1911      H1915   1.111       .  S
C1911      H1916   1.111       .  S
C1911      H1917   1.108       .  S
C1914      H1918   1.088       .  S
C1914      H1919   1.111       .  S
C1914      H1920   1.111       .  S
C1921      C1922   1.401       .  A
C1921      C1926   1.397       .  A
C1921      H1928   1.075       .  S
C1922      C1923   1.418       .  A
C1923      C1924   1.407       .  A
C1923      C1930   1.504       .  S
C1924      C1925   1.402       .  A
C1924      H1929   1.084       .  S
C1925      C1926   1.413       .  A
C1926      C1927   1.510       .  S
C1927      H1931   1.111       .  S
C1927      H1932   1.106       .  S
C1927      H1933   1.110       .  S
C1930      H1934   1.101       .  S
C1930      H1935   1.107       .  S
C1930      H1936   1.111       .  S
C1937      C1938   1.407       .  A
C1937      C1942   1.408       .  A
C1937      H1944   1.076       .  S
C1938      C1939   1.418       .  A
C1939      C1940   1.399       .  A
C1939      C1946   1.498       .  S
C1940      C1941   1.398       .  A
C1940      H1945   1.085       .  S
C1941      C1942   1.411       .  A
C1942      C1943   1.506       .  S
C1943      H1947   1.111       .  S
C1943      H1948   1.110       .  S
C1943      H1949   1.109       .  S
C1946      H1950   1.110       .  S
C1946      H1951   1.094       .  S
C1946      H1952   1.111       .  S
C1953      C1954   1.404       .  A
C1953      C1958   1.400       .  A
C1953      H1960   1.084       .  S
C1954      C1955   1.411       .  A
C1955      C1956   1.407       .  A
C1955      C1962   1.501       .  S
C1956      C1957   1.408       .  A
C1956      H1961   1.083       .  S
C1957      C1958   1.416       .  A
C1958      C1959   1.508       .  S
C1959      H1963   1.111       .  S
C1959      H1964   1.110       .  S
C1959      H1965   1.108       .  S
C1962      H1966   1.107       .  S
C1962      H1967   1.110       .  S
C1962      H1968   1.109       .  S
C1969      C1970   1.404       .  A
C1969      C1974   1.404       .  A
C1969      H1976   1.083       .  S
C1970      C1971   1.418       .  A
C1971      C1972   1.398       .  A
C1971      C1978   1.503       .  S
C1972      C1973   1.396       .  A
C1972      H1977   1.085       .  S
C1973      C1974   1.413       .  A
C1974      C1975   1.507       .  S
C1975      H1979   1.111       .  S
C1975      H1980   1.110       .  S
C1975      H1981   1.109       .  S
C1978      H1982   1.102       .  S
C1978      H1983   1.110       .  S
C1978      H1984   1.110       .  S
C1985      C1986   1.396       .  A
C1985      C1990   1.393       .  A
C1985      H1992   1.083       .  S
C1986      C1987   1.418       .  A
C1987      C1988   1.416       .  A
C1987      C1994   1.503       .  S
C1988      C1989   1.417       .  A
C1988      H1993   1.077       .  S
C1989      C1990   1.433       .  A
C1990      C1991   1.515       .  S
C1991      H1995   1.111       .  S
C1991      H1996   1.108       .  S
C1991      H1997   1.110       .  S
C1994      H1998   1.103       .  S
C1994      H1999   1.106       .  S
C1994      H2000   1.110       .  S
C2001      C2002   1.409       .  A
C2001      C2006   1.407       .  A
C2001      H2008   1.081       .  S
C2002      C2003   1.416       .  A
C2003      C2004   1.402       .  A
C2003      C2010   1.502       .  S
C2004      C2005   1.398       .  A
C2004      H2009   1.084       .  S
C2005      C2006   1.411       .  A
C2006      C2007   1.506       .  S
C2007      H2011   1.111       .  S
C2007      H2012   1.110       .  S
C2007      H2013   1.110       .  S
C2010      H2014   1.104       .  S
C2010      H2015   1.110       .  S
C2010      H2016   1.110       .  S
C2017      C2018   1.406       .  A
C2017      C2022   1.407       .  A
C2017      H2024   1.082       .  S
C2018      C2019   1.420       .  A
C2019      C2020   1.399       .  A
C2019      C2026   1.503       .  S
C2020      C2021   1.395       .  A
C2020      H2025   1.085       .  S
C2021      C2022   1.414       .  A
C2022      C2023   1.507       .  S
C2023      H2027   1.110       .  S
C2023      H2028   1.111       .  S
C2023      H2029   1.108       .  S
C2026      H2030   1.100       .  S
C2026      H2031   1.111       .  S
C2026      H2032   1.110       .  S
C2033      C2034   1.405       .  A
C2033      C2038   1.408       .  A
C2033      H2040   1.081       .  S
C2034      C2035   1.416       .  A
C2035      C2036   1.395       .  A
C2035      C2042   1.506       .  S
C2036      C2037   1.404       .  A
C2036      H2041   1.085       .  S
C2037      C2038   1.419       .  A
C2038      C2039   1.507       .  S
C2039      H2043   1.111       .  S
C2039      H2044   1.110       .  S
C2039      H2045   1.107       .  S
C2042      H2046   1.096       .  S
C2042      H2047   1.110       .  S
C2042      H2048   1.111       .  S
C2049      C2050   1.405       .  A
C2049      C2054   1.405       .  A
C2049      H2056   1.080       .  S
C2050      C2051   1.416       .  A
C2051      C2052   1.397       .  A
C2051      C2058   1.500       .  S
C2052      C2053   1.401       .  A
C2052      H2057   1.085       .  S
C2053      C2054   1.413       .  A
C2054      C2055   1.507       .  S
C2055      H2059   1.111       .  S
C2055      H2060   1.108       .  S
C2055      H2061   1.110       .  S
C2058      H2062   1.110       .  S
C2058      H2063   1.093       .  S
C2058      H2064   1.111       .  S
C2065      C2066   1.405       .  A
C2065      C2070   1.403       .  A
C2065      H2072   1.080       .  S
C2066      C2067   1.418       .  A
C2067      C2068   1.404       .  A
C2067      C2074   1.501       .  S
C2068      C2069   1.399       .  A
C2068      H2073   1.084       .  S
C2069      C2070   1.413       .  A
C2070      C2071   1.508       .  S
C2071      H2075   1.110       .  S
C2071      H2076   1.109       .  S
C2071      H2077   1.110       .  S
C2074      H2078   1.101       .  S
C2074      H2079   1.110       .  S
C2074      H2080   1.110       .  S
C2081      C2082   1.409       .  A
C2081      C2086   1.402       .  A
C2081      H2088   1.081       .  S
C2082      C2083   1.421       .  A
C2083      C2084   1.398       .  A
C2083      C2090   1.499       .  S
C2084      C2085   1.397       .  A
C2084      H2089   1.085       .  S
C2085      C2086   1.408       .  A
C2086      C2087   1.507       .  S
C2087      H2091   1.111       .  S
C2087      H2092   1.109       .  S
C2087      H2093   1.111       .  S
C2090      H2094   1.111       .  S
C2090      H2095   1.090       .  S
C2090      H2096   1.111       .  S
C2097      C2098   1.408       .  A
C2097      C2102   1.406       .  A
C2097      H2104   1.079       .  S
C2098      C2099   1.418       .  A
C2099      C2100   1.400       .  A
C2099      C2106   1.500       .  S
C2100      C2101   1.399       .  A
C2100      H2105   1.085       .  S
C2101      C2102   1.410       .  A
C2102      C2103   1.506       .  S
C2103      H2107   1.111       .  S
C2103      H2108   1.110       .  S
C2103      H2109   1.109       .  S
C2106      H2110   1.110       .  S
C2106      H2111   1.097       .  S
C2106      H2112   1.110       .  S
C2113      C2114   1.406       .  A
C2113      C2118   1.402       .  A
C2113      H2120   1.078       .  S
C2114      C2115   1.418       .  A
C2115      C2116   1.406       .  A
C2115      C2122   1.501       .  S
C2116      C2117   1.400       .  A
C2116      H2121   1.084       .  S
C2117      C2118   1.411       .  A
C2118      C2119   1.508       .  S
C2119      H2123   1.111       .  S
C2119      H2124   1.108       .  S
C2119      H2125   1.110       .  S
C2122      H2126   1.110       .  S
C2122      H2127   1.103       .  S
C2122      H2128   1.110       .  S
C2129      C2130   1.404       .  A
C2129      C2134   1.392       .  A
C2129      H2136   1.078       .  S
C2130      C2131   1.420       .  A
C2131      C2132   1.409       .  A
C2131      C2138   1.502       .  S
C2132      C2133   1.403       .  A
C2132      H2137   1.084       .  S
C2133      C2134   1.411       .  A
C2134      C2135   1.509       .  S
C2135      H2139   1.110       .  S
C2135      H2140   1.109       .  S
C2135      H2141   1.111       .  S
C2138      H2142   1.104       .  S
C2138      H2143   1.100       .  S
C2138      H2144   1.111       .  S
C2145      C2146   1.407       .  A
C2145      C2150   1.408       .  A
C2145      H2152   1.081       .  S
C2146      C2147   1.416       .  A
C2147      C2148   1.406       .  A
C2147      C2154   1.504       .  S
C2148      C2149   1.399       .  A
C2148      H2153   1.084       .  S
C2149      C2150   1.413       .  A
C2150      C2151   1.506       .  S
C2151      H2155   1.111       .  S
C2151      H2156   1.110       .  S
C2151      H2157   1.110       .  S
C2154      H2158   1.105       .  S
C2154      H2159   1.110       .  S
C2154      H2160   1.111       .  S
C2161      C2162   1.417       .  A
C2161      C2166   1.412       .  A
C2161      H2168   1.081       .  S
C2162      C2163   1.432       .  A
C2163      C2164   1.389       .  A
C2163      C2170   1.515       .  S
C2164      C2165   1.396       .  A
C2164      H2169   1.081       .  S
C2165      C2166   1.414       .  A
C2166      C2167   1.504       .  S
C2167      H2171   1.111       .  S
C2167      H2172   1.110       .  S
C2167      H2173   1.105       .  S
C2170      H2174   1.108       .  S
C2170      H2175   1.109       .  S
C2170      H2176   1.110       .  S
C2177      C2178   1.408       .  A
C2177      C2182   1.399       .  A
C2177      H2184   1.083       .  S
C2178      C2179   1.418       .  A
C2179      C2180   1.406       .  A
C2179      C2186   1.504       .  S
C2180      C2181   1.403       .  A
C2180      H2185   1.085       .  S
C2181      C2182   1.409       .  A
C2182      C2183   1.508       .  S
C2183      H2187   1.111       .  S
C2183      H2188   1.109       .  S
C2183      H2189   1.110       .  S
C2186      H2190   1.110       .  S
C2186      H2191   1.101       .  S
C2186      H2192   1.110       .  S
C2193      C2194   1.405       .  A
C2193      C2198   1.408       .  A
C2193      H2200   1.084       .  S
C2194      C2195   1.416       .  A
C2195      C2196   1.399       .  A
C2195      C2202   1.503       .  S
C2196      C2197   1.398       .  A
C2196      H2201   1.085       .  S
C2197      C2198   1.412       .  A
C2198      C2199   1.505       .  S
C2199      H2203   1.111       .  S
C2199      H2204   1.110       .  S
C2199      H2205   1.110       .  S
C2202      H2206   1.103       .  S
C2202      H2207   1.110       .  S
C2202      H2208   1.110       .  S
C2209      C2210   1.403       .  A
C2209      C2214   1.404       .  A
C2209      H2216   1.076       .  S
C2210      C2211   1.420       .  A
C2211      C2212   1.406       .  A
C2211      C2218   1.505       .  S
C2212      C2213   1.400       .  A
C2212      H2217   1.084       .  S
C2213      C2214   1.413       .  A
C2214      C2215   1.508       .  S
C2215      H2219   1.111       .  S
C2215      H2220   1.109       .  S
C2215      H2221   1.110       .  S
C2218      H2222   1.106       .  S
C2218      H2223   1.110       .  S
C2218      H2224   1.110       .  S
C2225      C2226   1.405       .  A
C2225      C2230   1.408       .  A
C2225      H2232   1.080       .  S
C2226      C2227   1.417       .  A
C2227      C2228   1.391       .  A
C2227      C2234   1.503       .  S
C2228      C2229   1.399       .  A
C2228      H2233   1.085       .  S
C2229      C2230   1.415       .  A
C2230      C2231   1.506       .  S
C2231      H2235   1.111       .  S
C2231      H2236   1.110       .  S
C2231      H2237   1.108       .  S
C2234      H2238   1.097       .  S
C2234      H2239   1.111       .  S
C2234      H2240   1.111       .  S
C2241      C2242   1.410       .  A
C2241      C2246   1.402       .  A
C2241      H2248   1.079       .  S
C2242      C2243   1.424       .  A
C2243      C2244   1.408       .  A
C2243      C2250   1.501       .  S
C2244      C2245   1.398       .  A
C2244      H2249   1.084       .  S
C2245      C2246   1.407       .  A
C2246      C2247   1.507       .  S
C2247      H2251   1.110       .  S
C2247      H2252   1.109       .  S
C2247      H2253   1.111       .  S
C2250      H2254   1.105       .  S
C2250      H2255   1.095       .  S
C2250      H2256   1.111       .  S
C2257      C2258   1.397       .  A
C2257      C2262   1.398       .  A
C2257      H2264   1.085       .  S
C2258      C2259   1.413       .  A
C2259      C2260   1.406       .  A
C2259      C2266   1.507       .  S
C2260      C2261   1.407       .  A
C2260      H2265   1.079       .  S
C2261      C2262   1.418       .  A
C2262      C2263   1.500       .  S
C2263      H2267   1.111       .  S
C2263      H2268   1.099       .  S
C2263      H2269   1.103       .  S
C2266      H2270   1.110       .  S
C2266      H2271   1.108       .  S
C2266      H2272   1.111       .  S
C2273      C2274   1.407       .  A
C2273      C2278   1.401       .  A
C2273      H2280   1.076       .  S
C2274      C2275   1.420       .  A
C2275      C2276   1.406       .  A
C2275      C2282   1.504       .  S
C2276      C2277   1.400       .  A
C2276      H2281   1.084       .  S
C2277      C2278   1.409       .  A
C2278      C2279   1.508       .  S
C2279      H2283   1.111       .  S
C2279      H2284   1.108       .  S
C2279      H2285   1.110       .  S
C2282      H2286   1.101       .  S
C2282      H2287   1.105       .  S
C2282      H2288   1.111       .  S
C2289      C2290   1.405       .  A
C2289      C2294   1.409       .  A
C2289      H2296   1.082       .  S
C2290      C2291   1.415       .  A
C2291      C2292   1.396       .  A
C2291      C2298   1.502       .  S
C2292      C2293   1.401       .  A
C2292      H2297   1.085       .  S
C2293      C2294   1.414       .  A
C2294      C2295   1.506       .  S
C2295      H2299   1.111       .  S
C2295      H2300   1.110       .  S
C2295      H2301   1.108       .  S
C2298      H2302   1.111       .  S
C2298      H2303   1.101       .  S
C2298      H2304   1.110       .  S
C2305      C2306   1.407       .  A
C2305      C2310   1.409       .  A
C2305      H2312   1.079       .  S
C2306      C2307   1.418       .  A
C2307      C2308   1.401       .  A
C2307      C2314   1.503       .  S
C2308      C2309   1.399       .  A
C2308      H2313   1.084       .  S
C2309      C2310   1.413       .  A
C2310      C2311   1.506       .  S
C2311      H2315   1.111       .  S
C2311      H2316   1.108       .  S
C2311      H2317   1.110       .  S
C2314      H2318   1.106       .  S
C2314      H2319   1.099       .  S
C2314      H2320   1.111       .  S
C2321      C2322   1.405       .  A
C2321      C2326   1.400       .  A
C2321      H2328   1.076       .  S
C2322      C2323   1.418       .  A
C2323      C2324   1.400       .  A
C2323      C2330   1.503       .  S
C2324      C2325   1.398       .  A
C2324      H2329   1.085       .  S
C2325      C2326   1.407       .  A
C2326      C2327   1.507       .  S
C2327      H2331   1.111       .  S
C2327      H2332   1.110       .  S
C2327      H2333   1.109       .  S
C2330      H2334   1.103       .  S
C2330      H2335   1.111       .  S
C2330      H2336   1.110       .  S
C2337      C2338   1.406       .  A
C2337      C2342   1.407       .  A
C2337      H2344   1.078       .  S
C2338      C2339   1.419       .  A
C2339      C2340   1.395       .  A
C2339      C2346   1.501       .  S
C2340      C2341   1.399       .  A
C2340      H2345   1.085       .  S
C2341      C2342   1.413       .  A
C2342      C2343   1.507       .  S
C2343      H2347   1.111       .  S
C2343      H2348   1.108       .  S
C2343      H2349   1.110       .  S
C2346      H2350   1.091       .  S
C2346      H2351   1.111       .  S
C2346      H2352   1.111       .  S
C2353      C2354   1.404       .  A
C2353      C2358   1.406       .  A
C2353      H2360   1.080       .  S
C2354      C2355   1.418       .  A
C2355      C2356   1.405       .  A
C2355      C2362   1.504       .  S
C2356      C2357   1.399       .  A
C2356      H2361   1.084       .  S
C2357      C2358   1.414       .  A
C2358      C2359   1.507       .  S
C2359      H2363   1.111       .  S
C2359      H2364   1.110       .  S
C2359      H2365   1.109       .  S
C2362      H2366   1.105       .  S
C2362      H2367   1.110       .  S
C2362      H2368   1.110       .  S
C2369      C2370   1.405       .  A
C2369      C2374   1.411       .  A
C2369      H2376   1.080       .  S
C2370      C2371   1.417       .  A
C2371      C2372   1.397       .  A
C2371      C2378   1.500       .  S
C2372      C2373   1.400       .  A
C2372      H2377   1.085       .  S
C2373      C2374   1.416       .  A
C2374      C2375   1.506       .  S
C2375      H2379   1.111       .  S
C2375      H2380   1.108       .  S
C2375      H2381   1.110       .  S
C2378      H2382   1.095       .  S
C2378      H2383   1.111       .  S
C2378      H2384   1.111       .  S
C2385      C2386   1.400       .  A
C2385      C2390   1.404       .  A
C2385      H2392   1.084       .  S
C2386      C2387   1.411       .  A
C2387      C2388   1.401       .  A
C2387      C2394   1.508       .  S
C2388      C2389   1.403       .  A
C2388      H2393   1.076       .  S
C2389      C2390   1.418       .  A
C2390      C2391   1.505       .  S
C2391      H2395   1.111       .  S
C2391      H2396   1.107       .  S
C2391      H2397   1.102       .  S
C2394      H2398   1.110       .  S
C2394      H2399   1.108       .  S
C2394      H2400   1.111       .  S
