geometry optimzed in LAMMPS
_audit_creation_date              2020-11-30 
_audit_creation_method            'lammps2cif' 
_symmetry_space_group_name_H-M    'P1' 
_symmetry_Int_Tables_number       1 
_symmetry_cell_setting            triclinic 
loop_ 
_symmetry_equiv_pos_as_xyz 
  x,y,z 
_cell_length_a                    48.52617495391296 
_cell_length_b                    48.83802340145533 
_cell_length_c                    48.53036725137776 
_cell_angle_alpha                 90.01937570555174 
_cell_angle_beta                  89.77100863641529 
_cell_angle_gamma                 89.97941026554918 
loop_ 
_atom_site_label 
_atom_site_type_symbol 
_atom_site_fract_x 
_atom_site_fract_y 
_atom_site_fract_z 
_atom_site_charge 
C1          C  0.15172115  0.16373243  0.48730589     0.00800
C2          C  0.15281349  0.16239915  0.51553242     0.00800
C3          C  0.15132404  0.46122758  0.19044598     0.00800
C4          C  0.15160900  0.48950324  0.19020090     0.00800
C5          C  0.45343595  0.16598239  0.18569300     0.00800
C6          C  0.48135026  0.16054728  0.18711281     0.00800
C7          C  0.15482324  0.78576870  0.48537375     0.00800
C8          C  0.15724515  0.78368488  0.51355087     0.00800
C9          C  0.77715046  0.16882426  0.48660819     0.00800
C10         C  0.78417929  0.16308047  0.51339918     0.00800
C11         C  0.77962365  0.78866911  0.51485072     0.00800
C12         C  0.78351941  0.79180703  0.48693994     0.00800
C13         C  0.45220717  0.17389820  0.80359246     0.00800
C14         C  0.48060242  0.17510077  0.80118705     0.00800
C15         C  0.16130538  0.46209015  0.80645088     0.00800
C16         C  0.16540615  0.49001500  0.80333468     0.00800
C17         C  0.45875588  0.78828323  0.19302770     0.00800
C18         C  0.48664962  0.78781682  0.18864162     0.00800
C19         C  0.79422129  0.46568752  0.18107205     0.00800
C20         C  0.79643659  0.49371569  0.17955440     0.00800
C21         C  0.78853113  0.46639530  0.82085252     0.00800
C22         C  0.78692853  0.49435495  0.81952301     0.00800
C23         C  0.45241240  0.77980549  0.80524083     0.00800
C24         C  0.48046980  0.78124286  0.80924630     0.00800
C25         C  0.60201490  0.71177407  0.89692979     0.03360
C26         C  0.57562289  0.72273708  0.89207867    -0.12790
C27         C  0.56692991  0.72844703  0.86513974     0.00860
C28         C  0.58509547  0.72493930  0.84294318    -0.11310
C29         C  0.61151714  0.71462976  0.84702099     0.03360
C30         C  0.61896796  0.70620396  0.87363827    -0.10730
H31         H  0.56190373  0.72760727  0.90867455     0.08950
H32         H  0.57880565  0.73127449  0.82248984     0.06480
H33         H  0.63922602  0.69736978  0.87652959     0.06330
C34         C  0.72064202  0.61842454  0.90274758     0.03360
C35         C  0.72701997  0.59152345  0.89531048    -0.12790
C36         C  0.73609994  0.58579782  0.86848438     0.00860
C37         C  0.73934192  0.60726756  0.84944867    -0.11310
C38         C  0.73138381  0.63400467  0.85632351     0.03360
C39         C  0.72238979  0.63943636  0.88321136    -0.10730
H40         H  0.72431483  0.57511421  0.91010700     0.08950
H41         H  0.74644519  0.60272869  0.82875084     0.06480
H42         H  0.71571229  0.65986754  0.88879840     0.06330
C43         C  0.86145900  0.61232442  0.72999109     0.03360
C44         C  0.85732019  0.58634077  0.74163987    -0.12790
C45         C  0.83083368  0.57845931  0.75021899     0.00860
C46         C  0.80857540  0.59652136  0.74692226    -0.11310
C47         C  0.81239124  0.62234142  0.73493441     0.03360
C48         C  0.83855636  0.62920238  0.72481848    -0.10730
H49         H  0.87470137  0.57292330  0.74522910     0.08950
H50         H  0.78860743  0.59098894  0.75534012     0.06480
H51         H  0.84176460  0.64902045  0.71533625     0.06330
C52         C  0.87461575  0.73893666  0.64177269     0.03360
C53         C  0.86747423  0.74857419  0.61541201    -0.12790
C54         C  0.84071747  0.75830392  0.61031862     0.00860
C55         C  0.82108093  0.75801753  0.63169192    -0.11310
C56         C  0.82746093  0.74726069  0.65774812     0.03360
C57         C  0.85444799  0.73815852  0.66267802    -0.10730
H58         H  0.88227905  0.74731038  0.59869408     0.08950
H59         H  0.80013891  0.76429072  0.62720800     0.06480
H60         H  0.85953185  0.72910857  0.68240797     0.06330
C61         C  0.69047409  0.87011881  0.63029446     0.03360
C62         C  0.70043430  0.86461711  0.60353492    -0.12790
C63         C  0.71164525  0.83867177  0.59728667     0.00860
C64         C  0.71221826  0.81838109  0.61767666    -0.11310
C65         C  0.70245325  0.82350684  0.64431545     0.03360
C66         C  0.69121463  0.84933654  0.65035288    -0.10730
H67         H  0.70031377  0.88063226  0.58814502     0.08950
H68         H  0.72156526  0.79874939  0.61294853     0.06480
H69         H  0.68468774  0.85402677  0.67122021     0.06330
C70         C  0.60430310  0.87990996  0.75310619     0.03360
C71         C  0.57728711  0.87104080  0.76022388    -0.12790
C72         C  0.57245510  0.84348112  0.76793860     0.00860
C73         C  0.59510153  0.82604911  0.77179504    -0.11310
C74         C  0.62155452  0.83381276  0.76360244     0.03360
C75         C  0.62578970  0.86041192  0.75387909    -0.10730
H76         H  0.56006024  0.88488824  0.75968883     0.08950
H77         H  0.59163206  0.80540378  0.77918100     0.06480
H78         H  0.64619307  0.86600136  0.74666649     0.06330
O79         O  0.74620003  0.71045683  0.70948403    -0.88110
C80         C  0.76502018  0.71324608  0.79109723     0.87920
Mg81       Mg  0.73613311  0.74647411  0.68664007     1.58150
O82         O  0.69837743  0.68842356  0.77719068    -0.87840
O83         O  0.72656803  0.67155417  0.72019503    -0.75170
C84         C  0.64345414  0.81285385  0.76114251     0.92970
O85         O  0.77712612  0.75814261  0.74303204    -0.74980
O86         O  0.66362518  0.81731784  0.74497885    -0.82490
Mg87       Mg  0.78298765  0.71227752  0.73417141     1.57960
C88         C  0.63269734  0.71747732  0.82502406     0.92890
O89         O  0.79503395  0.66716256  0.72670432    -0.80750
H90         H  0.67365675  0.66052213  0.76008420    -0.06100
C91         C  0.70189737  0.76926925  0.79838995     0.87830
O92         O  0.68977383  0.73816903  0.69184463    -0.75260
O93         O  0.75871824  0.70144805  0.76951212    -0.88030
O94         O  0.65577676  0.70537952  0.82790580    -0.80840
C95         C  0.72818854  0.65491665  0.83459906     0.93010
C96         C  0.79123996  0.64399739  0.73830012     0.92860
Mg97       Mg  0.65327982  0.74521079  0.76712440     1.57950
O98         O  0.64037287  0.79003321  0.77354168    -0.80760
O99         O  0.65879472  0.69932867  0.75905510    -0.75000
O100        O  0.73999184  0.65135263  0.81135209    -0.80840
O101        O  0.80903181  0.72443679  0.69712131    -0.82550
O102        O  0.69518279  0.80600272  0.68949960    -0.80870
C103        C  0.67681657  0.68173569  0.76560589     0.87300
O104        O  0.67750731  0.75581473  0.73146753    -0.88010
O105        O  0.69033291  0.74785274  0.79145365    -0.88120
O106        O  0.70883354  0.78724573  0.78083297    -0.75170
Mg107      Mg  0.73394037  0.66482236  0.76634145     1.57970
O108        O  0.71201097  0.67490769  0.83908399    -0.82550
H109        H  0.72836142  0.68657787  0.68127119    -0.06270
O110        O  0.73786271  0.76979987  0.72441341    -0.87820
H111        H  0.76233784  0.79701555  0.74295620    -0.06100
H112        H  0.65039532  0.73827740  0.70608515    -0.06280
C113        C  0.75921310  0.77599636  0.73671117     0.87270
C114        C  0.73389745  0.68940100  0.70264102     0.87860
C115        C  0.67154717  0.74418268  0.70968767     0.87910
H116        H  0.70707613  0.77234402  0.81981615    -0.06250
O117        O  0.74702692  0.72005524  0.80884777    -0.75280
Mg118      Mg  0.70162149  0.79302324  0.73452740     1.58000
H119        H  0.78629957  0.71882674  0.79447103    -0.06270
C120        C  0.80507155  0.74189860  0.67804342     0.92890
O121        O  0.72488292  0.78417230  0.66222321    -0.82510
C122        C  0.70743299  0.80320138  0.66641884     0.92950
O123        O  0.77122066  0.63978666  0.75476074    -0.82500
Mg124      Mg  0.70084475  0.71221331  0.81466658     1.58180
O125        O  0.78178365  0.75362150  0.67481325    -0.80830
O126        O  0.62825714  0.73391221  0.80512462    -0.82520
C127        C  0.66654277  0.67497653  0.01590856     0.00800
C128        C  0.66488488  0.67265466  0.98788152     0.00800
C129        C  0.66035411  0.96442464  0.69425879     0.00800
C130        C  0.65935219  0.99263614  0.69108707     0.00800
C131        C  0.95575953  0.66612288  0.68377458     0.00800
C132        C  0.98348871  0.66764242  0.69026478     0.00800
C133        C  0.69247785  0.35296991  0.89282892     0.03360
C134        C  0.70438054  0.37886672  0.88864404    -0.12790
C135        C  0.71193804  0.38716700  0.86190431     0.00860
C136        C  0.70833374  0.36919770  0.83967114    -0.11310
C137        C  0.69676577  0.34323470  0.84362206     0.03360
C138        C  0.68728495  0.33602844  0.86999596    -0.10730
H139        H  0.70947243  0.39163065  0.90616498     0.08950
H140        H  0.71660844  0.37473690  0.81964150     0.06480
H141        H  0.67885359  0.31577178  0.87350158     0.06330
C142        C  0.60029066  0.23238052  0.90351644     0.03360
C143        C  0.62141595  0.23306183  0.88370631    -0.12790
C144        C  0.61716253  0.22326418  0.85704858     0.00860
C145        C  0.59129726  0.21271867  0.85012240    -0.11310
C146        C  0.56974163  0.21216527  0.86946982     0.03360
C147        C  0.57419919  0.22198576  0.89637790    -0.10730
H148        H  0.64127861  0.24165281  0.88914328     0.08950
H149        H  0.58750157  0.20560245  0.82930938     0.06480
H150        H  0.55775301  0.22124863  0.91149193     0.06330
C151        C  0.83445803  0.37240710  0.77242867     0.03360
C152        C  0.81561173  0.35106340  0.77678064    -0.12790
C153        C  0.82091159  0.32489125  0.76641741     0.00860
C154        C  0.84696446  0.31922468  0.75521331    -0.11310
C155        C  0.86769273  0.33928767  0.75465956     0.03360
C156        C  0.86103455  0.36614866  0.76282180    -0.10730
H157        H  0.79562457  0.35561188  0.78564732     0.08950
H158        H  0.85094555  0.29937207  0.74609352     0.06480
H159        H  0.87610958  0.38232140  0.76068941     0.06330
C160        C  0.82080978  0.23619911  0.60102103     0.03360
C161        C  0.80128871  0.24895098  0.61796570    -0.12790
C162        C  0.80701761  0.25394448  0.64547296     0.00860
C163        C  0.83456025  0.25723225  0.65321780    -0.11310
C164        C  0.85580467  0.25094255  0.63454230     0.03360
C165        C  0.84893284  0.23863905  0.60903834    -0.10730
H166        H  0.78094243  0.25298481  0.61083389     0.08950
H167        H  0.83951196  0.26410730  0.67384289     0.06480
H168        H  0.86545922  0.23115115  0.59610395     0.06330
C169        C  0.73401484  0.11219289  0.60607819     0.03360
C170        C  0.71985719  0.08748153  0.61031458    -0.12790
C171        C  0.70731472  0.08195564  0.63581773     0.00860
C172        C  0.70762141  0.10211891  0.65661508    -0.11310
C173        C  0.72239310  0.12676925  0.65318970     0.03360
C174        C  0.73657688  0.13082504  0.62817072    -0.10730
H175        H  0.71890518  0.07244021  0.59392628     0.08950
H176        H  0.69656024  0.09838228  0.67563187     0.06480
H177        H  0.74914473  0.14878545  0.62580436     0.06330
C178        C  0.56391687  0.11750704  0.74643152     0.03360
C179        C  0.57479892  0.09110703  0.74000275    -0.12790
C180        C  0.60388305  0.08622233  0.74054099     0.00860
C181        C  0.62078272  0.10910250  0.74600007    -0.11310
C182        C  0.61049443  0.13563807  0.74659968     0.03360
C183        C  0.58239116  0.13959042  0.74885873    -0.10730
H184        H  0.56075121  0.07503920  0.73447794     0.08950
H185        H  0.64251521  0.10699076  0.75000208     0.06480
H186        H  0.57496950  0.16018066  0.75265228     0.06330
O187        O  0.69223477  0.20636958  0.70915134    -0.88110
C188        C  0.69852511  0.18933554  0.79239527     0.87920
Mg189      Mg  0.72763983  0.21806547  0.68512554     1.58150
O190        O  0.67186521  0.25481451  0.77671254    -0.87840
O191        O  0.65281091  0.22425355  0.72156151    -0.75170
C192        C  0.79793646  0.30550505  0.76255121     0.92970
O193        O  0.74303224  0.17521871  0.73965792    -0.74980
O194        O  0.80156715  0.28529118  0.74657292    -0.82490
Mg195      Mg  0.69662385  0.17018999  0.73460997     1.57960
C196        C  0.70040870  0.32169868  0.82242835     0.92890
O197        O  0.65195459  0.15622910  0.73232174    -0.80750
H198        H  0.64385874  0.27891125  0.75876228    -0.06100
C199        C  0.75167190  0.24932071  0.79774361     0.87830
O200        O  0.71944589  0.26363657  0.69252236    -0.75260
O201        O  0.68723833  0.19519020  0.77041236    -0.88030
O202        O  0.68761551  0.29909484  0.82528849    -0.80840
C203        C  0.63863643  0.22664802  0.83574129     0.93010
C204        C  0.62989542  0.15873870  0.74641121     0.92860
Mg205      Mg  0.72918414  0.29940079  0.76650442     1.57950
O206        O  0.77455736  0.31068247  0.77341399    -0.80760
O207        O  0.68279950  0.29412811  0.75827164    -0.75000
O208        O  0.63697515  0.21278209  0.81363396    -0.80840
O209        O  0.70586315  0.14500729  0.69591242    -0.82550
O210        O  0.78887392  0.25886012  0.69031240    -0.80870
C211        C  0.66513443  0.27600848  0.76461354     0.87300
O212        O  0.73909817  0.27504950  0.73142014    -0.88010
O213        O  0.73116515  0.26295246  0.79149401    -0.88120
O214        O  0.76877591  0.24099758  0.77977399    -0.75170
Mg215      Mg  0.64890034  0.21820420  0.76835160     1.57970
O216        O  0.65735665  0.24438324  0.83934717    -0.82550
H217        H  0.66593473  0.22220236  0.68186150    -0.06270
O218        O  0.75195686  0.21513546  0.72203217    -0.87820
H219        H  0.78171299  0.19043163  0.73574758    -0.06100
H220        H  0.72050634  0.30245516  0.70725004    -0.06280
C221        C  0.75994582  0.19345889  0.73218326     0.87270
C222        C  0.67017367  0.21743378  0.70318188     0.87860
C223        C  0.72656610  0.28136092  0.71023340     0.87910
H224        H  0.75437148  0.24317543  0.81896245    -0.06250
O225        O  0.70363004  0.20749739  0.81041089    -0.75280
Mg226      Mg  0.77560073  0.24990596  0.73409274     1.58000
H227        H  0.70457711  0.16837403  0.79620427    -0.06270
C228        C  0.72083112  0.14900484  0.67457647     0.92890
O229        O  0.76568494  0.23245639  0.66099906    -0.82510
C230        C  0.78542147  0.24894531  0.66643470     0.92950
O231        O  0.62496618  0.17955700  0.76124125    -0.82500
Mg232      Mg  0.69513064  0.25381928  0.81456428     1.58180
O233        O  0.73302731  0.17202987  0.67039682    -0.80830
O234        O  0.71813878  0.32528058  0.80339682    -0.82520
C235        C  0.32675195  0.72564689  0.90300508     0.03360
C236        C  0.30588897  0.73973698  0.88882627    -0.12790
C237        C  0.31025585  0.74899081  0.86200861     0.00860
C238        C  0.33726783  0.75380210  0.85334010    -0.11310
C239        C  0.35963585  0.74376460  0.86858577     0.03360
C240        C  0.35410571  0.72794478  0.89235438    -0.10730
H241        H  0.28539722  0.74102202  0.89690598     0.08950
H242        H  0.34091383  0.76275723  0.83321160     0.06480
H243        H  0.37092564  0.71665271  0.90136411     0.06330
C244        C  0.26001646  0.59876514  0.88753904     0.03360
C245        C  0.24722535  0.57359177  0.88173390    -0.12790
C246        C  0.23076095  0.57084842  0.85823769     0.00860
C247        C  0.22725533  0.59315190  0.84050435    -0.11310
C248        C  0.23951664  0.61860884  0.84598099     0.03360
C249        C  0.25646358  0.62102276  0.86931992    -0.10730
H250        H  0.24878744  0.55677590  0.89620640     0.08950
H251        H  0.21397727  0.59066500  0.82276289     0.06480
H252        H  0.26571586  0.64052870  0.87412817     0.06330
C253        C  0.33464685  0.87272949  0.73589896     0.03360
C254        C  0.36026176  0.86769692  0.74837144    -0.12790
C255        C  0.36819460  0.84086255  0.75463265     0.00860
C256        C  0.34971583  0.81921015  0.75100652    -0.11310
C257        C  0.32345195  0.82388733  0.74041725     0.03360
C258        C  0.31684830  0.85024013  0.73112330    -0.10730
H259        H  0.37377180  0.88421867  0.75396609     0.08950
H260        H  0.35548378  0.79884894  0.75779586     0.06480
H261        H  0.29682120  0.85362277  0.72194278     0.06330
C262        C  0.19762126  0.84151216  0.60703488     0.03360
C263        C  0.19446296  0.82380938  0.62978594    -0.12790
C264        C  0.20476241  0.83096545  0.65584812     0.00860
C265        C  0.21637361  0.85699025  0.65934197    -0.11310
C266        C  0.21921484  0.87488542  0.63698488     0.03360
C267        C  0.21065120  0.86684990  0.61072171    -0.10730
H268        H  0.18580261  0.80360968  0.62656327     0.08950
H269        H  0.22463801  0.86294678  0.67916974     0.06480
H270        H  0.21534121  0.87974264  0.59320373     0.06330
C271        C  0.06610200  0.61499077  0.75546391     0.03360
C272        C  0.07341196  0.58819496  0.76339103    -0.12790
C273        C  0.09962634  0.58288375  0.77458145     0.00860
C274        C  0.11802743  0.60499373  0.77838585    -0.11310
C275        C  0.11168807  0.63142245  0.76900740     0.03360
C276        C  0.08530992  0.63630930  0.75837514    -0.10730
H277        H  0.05939562  0.57154484  0.75936484     0.08950
H278        H  0.13856382  0.60086592  0.78606758     0.06480
H279        H  0.08012286  0.65651021  0.75071200     0.06330
C280        C  0.11387570  0.71574028  0.59824593     0.03360
C281        C  0.08686537  0.70817921  0.60533768    -0.12790
C282        C  0.08097671  0.69858237  0.63194282     0.00860
C283        C  0.10218473  0.69707253  0.65147994    -0.11310
C284        C  0.12876839  0.70644486  0.64520371     0.03360
C285        C  0.13459727  0.71512000  0.61827561    -0.10730
H286        H  0.07035711  0.71132365  0.59072731     0.08950
H287        H  0.09718903  0.69088685  0.67236781     0.06480
H288        H  0.15479811  0.72324173  0.61326870     0.06330
O289        O  0.23834337  0.75428909  0.71360059    -0.88110
C290        C  0.22992618  0.77512082  0.79451073     0.87920
Mg291      Mg  0.20381599  0.74221935  0.68931659     1.58150
O292        O  0.25854009  0.71008540  0.78323341    -0.87840
O293        O  0.27756776  0.73658534  0.72661050    -0.75170
C294        C  0.13391078  0.65220484  0.76548493     0.92970
O295        O  0.18746415  0.78519245  0.74325969    -0.74980
O296        O  0.13002025  0.67181843  0.74864975    -0.82490
Mg297      Mg  0.23379653  0.79180469  0.73677287     1.57960
C298        C  0.23236664  0.64253962  0.82828615     0.92890
O299        O  0.27891775  0.80562221  0.73108429    -0.80750
H300        H  0.28738245  0.68625085  0.76609913    -0.06100
C301        C  0.17679881  0.71177984  0.80159851     0.87830
O302        O  0.21264271  0.69674798  0.69682655    -0.75260
O303        O  0.24320062  0.76921024  0.77350695    -0.88030
O304        O  0.24312840  0.66610382  0.83265871    -0.80840
C305        C  0.28877614  0.74452307  0.84086095     0.93010
C306        C  0.30173573  0.80281993  0.74368111     0.92860
Mg307      Mg  0.20255702  0.66300197  0.77180291     1.57950
O308        O  0.15699855  0.64889326  0.77766872    -0.80760
O309        O  0.24875242  0.67046338  0.76463044    -0.75000
O310        O  0.29154086  0.75616299  0.81756850    -0.80840
O311        O  0.22348516  0.81517387  0.69808481    -0.82550
O312        O  0.14418352  0.70117859  0.69131365    -0.80870
C313        C  0.26589914  0.68884396  0.77148648     0.87300
O314        O  0.19245611  0.68580912  0.73569051    -0.88010
O315        O  0.19852813  0.69962588  0.79626371    -0.88120
O316        O  0.15966554  0.71816870  0.78295584    -0.75170
Mg317      Mg  0.28122295  0.74628216  0.77260396     1.57970
O318        O  0.27036487  0.72637315  0.84513355    -0.82550
H319        H  0.26432697  0.73648954  0.68702929    -0.06270
O320        O  0.17819048  0.74502743  0.72579886    -0.87820
H321        H  0.14888001  0.76935786  0.74134876    -0.06100
H322        H  0.21177680  0.65815698  0.71220006    -0.06280
C323        C  0.17049477  0.76661111  0.73661486     0.87270
C324        C  0.26026602  0.74262875  0.70806335     0.87860
C325        C  0.20545020  0.67923556  0.71476740     0.87910
H326        H  0.17274282  0.71803332  0.82259981    -0.06250
O327        O  0.22369114  0.75728279  0.81258227    -0.75280
Mg328      Mg  0.15495338  0.70926970  0.73676157     1.58000
H329        H  0.22273735  0.79591048  0.79719384    -0.06270
C330        C  0.20778367  0.81001928  0.67778831     0.92890
O331        O  0.16784957  0.72893837  0.66351335    -0.82510
C332        C  0.14844239  0.71193716  0.66772304     0.92950
O333        O  0.30564237  0.78359655  0.76086724    -0.82500
Mg334      Mg  0.23374476  0.71177917  0.82003768     1.58180
O335        O  0.19637200  0.78667810  0.67478114    -0.80830
O336        O  0.21485389  0.63875089  0.80916709    -0.82520
C337        C  0.28083911  0.96126346  0.68375941     0.00800
C338        C  0.28101119  0.98940283  0.68370848     0.00800
C339        C  0.32582720  0.22333499  0.90260498     0.03360
C340        C  0.35342106  0.22237460  0.89269073    -0.12790
C341        C  0.35963371  0.20855252  0.86774768     0.00860
C342        C  0.33789333  0.19885479  0.85135448    -0.11310
C343        C  0.31056552  0.20185379  0.86006576     0.03360
C344        C  0.30560805  0.20932659  0.88719988    -0.10730
H345        H  0.36978444  0.23298215  0.90307603     0.08950
H346        H  0.34224717  0.19124913  0.83080123     0.06480
H347        H  0.28450847  0.20816727  0.89448718     0.06330
C348        C  0.24035733  0.34733390  0.89661739     0.03360
C349        C  0.23154174  0.37335136  0.88776371    -0.12790
C350        C  0.22140027  0.37672988  0.86084691     0.00860
C351        C  0.21830086  0.35352703  0.84411057    -0.11310
C352        C  0.22861954  0.32789524  0.85173686     0.03360
C353        C  0.24006288  0.32503095  0.87806672    -0.10730
H354        H  0.23235046  0.39060073  0.90176645     0.08950
H355        H  0.20796154  0.35572224  0.82452834     0.06480
H356        H  0.24754516  0.30523357  0.88461766     0.06330
C357        C  0.21386343  0.07380310  0.63948743     0.03360
C358        C  0.20710374  0.08165955  0.61254509    -0.12790
C359        C  0.19758105  0.10829017  0.60735448     0.00860
C360        C  0.19401076  0.12669429  0.62940752    -0.11310
C361        C  0.20175067  0.11932883  0.65623861     0.03360
C362        C  0.21155782  0.09282535  0.66100018    -0.10730
H363        H  0.20996200  0.06741202  0.59564857     0.08950
H364        H  0.18689095  0.14731248  0.62524495     0.06480
H365        H  0.21844951  0.08713244  0.68143130     0.06330
C366        C  0.33664364  0.08235758  0.72639048     0.03360
C367        C  0.36315451  0.08887169  0.73614178    -0.12790
C368        C  0.36874356  0.11536120  0.74601139     0.00860
C369        C  0.34762218  0.13492723  0.74653223    -0.11310
C370        C  0.32124720  0.12889515  0.73696018     0.03360
C371        C  0.31606738  0.10276099  0.72629209    -0.10730
H372        H  0.37898235  0.07343285  0.73670816     0.08950
H373        H  0.35178672  0.15501151  0.75510485     0.06480
H374        H  0.29547248  0.09763870  0.71941668     0.06330
C375        C  0.07316616  0.25054741  0.63304453     0.03360
C376        C  0.07824712  0.23779441  0.60760238    -0.12790
C377        C  0.10421306  0.22665694  0.60192345     0.00860
C378        C  0.12497820  0.22783688  0.62181344    -0.11310
C379        C  0.12004916  0.23944275  0.64777456     0.03360
C380        C  0.09410620  0.25122505  0.65309698    -0.10730
H381        H  0.06192598  0.23582382  0.59261136     0.08950
H382        H  0.14474796  0.21846995  0.61727496     0.06480
H383        H  0.08966155  0.25983821  0.67321550     0.06330
C384        C  0.06486308  0.33723699  0.75498635     0.03360
C385        C  0.07299005  0.36386012  0.76267282    -0.12790
C386        C  0.09914023  0.36840741  0.77422068     0.00860
C387        C  0.11729030  0.34614262  0.77748061    -0.11310
C388        C  0.10969574  0.31957477  0.76907854     0.03360
C389        C  0.08325009  0.31537905  0.75833934    -0.10730
H390        H  0.05937227  0.38103014  0.75890538     0.08950
H391        H  0.13792957  0.34993387  0.78503803     0.06480
H392        H  0.07738168  0.29525965  0.75095851     0.06330
O393        O  0.19486990  0.24804943  0.79768019    -0.88110
C394        C  0.19956243  0.27025950  0.71565861     0.87920
Mg395      Mg  0.23069071  0.23630788  0.82136007     1.58150
O396        O  0.17316078  0.20395568  0.72712953    -0.87840
O397        O  0.15546831  0.23061230  0.78465875    -0.75170
C398        C  0.29869280  0.14876934  0.74159213     0.92970
O399        O  0.24435527  0.27936247  0.76607225    -0.74980
O400        O  0.30263213  0.16809433  0.75863593    -0.82490
Mg401      Mg  0.19818413  0.28526056  0.77364881     1.57960
C402        C  0.20402543  0.14023163  0.67815314     0.92890
O403        O  0.15326116  0.29969811  0.77983098    -0.80750
H404        H  0.14517518  0.17900711  0.74402240    -0.06100
C405        C  0.25489178  0.20885120  0.70787599     0.87830
O406        O  0.22232092  0.19073860  0.81334116    -0.75260
O407        O  0.18777155  0.26299277  0.73700519    -0.88030
O408        O  0.19165029  0.16308031  0.67540045    -0.80840
C409        C  0.14064509  0.23565284  0.66998328     0.93010
C410        C  0.13060898  0.29748131  0.76679355     0.92860
Mg411      Mg  0.23056118  0.15854296  0.73674370     1.57950
O412        O  0.27559844  0.14537047  0.72971408    -0.80760
O413        O  0.18426118  0.16426765  0.74465670    -0.75000
O414        O  0.13713934  0.24744152  0.69320525    -0.80840
O415        O  0.20934100  0.30818770  0.81184697    -0.82550
O416        O  0.29096051  0.19478858  0.81598178    -0.80870
C417        C  0.16651366  0.18229928  0.73845910     0.87300
O418        O  0.24070599  0.18080304  0.77335162    -0.88010
O419        O  0.23352866  0.19631394  0.71360955    -0.88120
O420        O  0.27243522  0.21504423  0.72614685    -0.75170
Mg421      Mg  0.15000465  0.23975499  0.73849516     1.57970
O422        O  0.16056534  0.21922700  0.66571699    -0.82550
H423        H  0.16921433  0.22958855  0.82408103    -0.06270
O424        O  0.25511355  0.23994192  0.78426365    -0.87820
H425        H  0.28342290  0.26474553  0.76774110    -0.06100
H426        H  0.22263521  0.15249200  0.79701762    -0.06280
C427        C  0.26198443  0.26151060  0.77294146     0.87270
C428        C  0.17306572  0.23614725  0.80314209     0.87860
C429        C  0.22867116  0.17366964  0.79463991     0.87910
H430        H  0.25821070  0.21564170  0.68692250    -0.06250
O431        O  0.20606323  0.25317892  0.69706239    -0.75280
Mg432      Mg  0.27810791  0.20464342  0.77177660     1.58000
H433        H  0.20523036  0.29152170  0.71314275    -0.06270
C434        C  0.22507565  0.30447606  0.83241707     0.92890
O435        O  0.26894500  0.22273003  0.84504403    -0.82510
C436        C  0.28835140  0.20581841  0.83958529     0.92950
O437        O  0.12620111  0.27783910  0.75013267    -0.82500
Mg438      Mg  0.19798733  0.20744511  0.69011734     1.58180
O439        O  0.23706883  0.28151483  0.83664783    -0.80830
O440        O  0.21997498  0.13546652  0.69830025    -0.82520
C441        C  0.95137912  0.30343397  0.68093319     0.00800
C442        C  0.97972167  0.30064462  0.68038707     0.00800
C443        C  0.26851408  0.28205412  0.01636248     0.00800
C444        C  0.26866636  0.28586637  0.98820512     0.00800
C445        C  0.29031251  0.96374691  0.32079210     0.00800
C446        C  0.29217462  0.99182780  0.32094844     0.00800
C447        C  0.24009424  0.34481112  0.11232696     0.03360
C448        C  0.22834923  0.37075582  0.11699354    -0.12790
C449        C  0.22199146  0.37928430  0.14397090     0.00860
C450        C  0.22518539  0.36108317  0.16600211    -0.11310
C451        C  0.23521450  0.33463175  0.16159998     0.03360
C452        C  0.24437027  0.32736238  0.13508431    -0.10730
H453        H  0.22232681  0.38351485  0.09985514     0.08950
H454        H  0.21762900  0.36688677  0.18624406     0.06480
H455        H  0.25209503  0.30683451  0.13147807     0.06330
C456        C  0.32691132  0.22567596  0.10003160     0.03360
C457        C  0.35366589  0.21600765  0.10471894    -0.12790
C458        C  0.36077100  0.20577818  0.13073527     0.00860
C459        C  0.34099247  0.20559434  0.15216625    -0.11310
C460        C  0.31411972  0.21542775  0.14766051     0.03360
C461        C  0.30731330  0.22502431  0.12128457    -0.10730
H462        H  0.36887152  0.21658011  0.08831671     0.08950
H463        H  0.34678168  0.19829608  0.17241111     0.06480
H464        H  0.28685441  0.23300671  0.11731511     0.06330
C465        C  0.33093455  0.08401179  0.26427344     0.03360
C466        C  0.35608725  0.09142369  0.25170556    -0.12790
C467        C  0.36545501  0.11880875  0.25269536     0.00860
C468        C  0.34857343  0.13818987  0.26606331    -0.11310
C469        C  0.32124725  0.13224946  0.27185483     0.03360
C470        C  0.31317563  0.10482414  0.27362780    -0.10730
H471        H  0.36769945  0.07581152  0.24114577     0.08950
H472        H  0.35520068  0.15916226  0.26881319     0.06480
H473        H  0.29267918  0.09981122  0.28091506     0.06330
C474        C  0.22087871  0.07505288  0.36469515     0.03360
C475        C  0.21192848  0.08181437  0.39138726    -0.12790
C476        C  0.19959576  0.10733370  0.39638603     0.00860
C477        C  0.19596424  0.12584938  0.37457145    -0.11310
C478        C  0.20508841  0.11952581  0.34789102     0.03360
C479        C  0.21750897  0.09394864  0.34314735    -0.10730
H480        H  0.21422200  0.06717211  0.40797480     0.08950
H481        H  0.18669616  0.14563258  0.37875979     0.06480
H482        H  0.22541962  0.08891674  0.32284307     0.06330
C483        C  0.06902762  0.24580177  0.37084539     0.03360
C484        C  0.09102181  0.24809453  0.35194366    -0.12790
C485        C  0.11710331  0.23803843  0.35833483     0.00860
C486        C  0.12156818  0.22772935  0.38472503    -0.11310
C487        C  0.10134669  0.22927615  0.40580622     0.03360
C488        C  0.07464690  0.23803465  0.39823098    -0.10730
H489        H  0.08690761  0.25488200  0.33108562     0.08950
H490        H  0.14130495  0.21826142  0.38881918     0.06480
H491        H  0.05811161  0.23801728  0.41276705     0.06330
C492        C  0.06164604  0.33606489  0.24971689     0.03360
C493        C  0.06829720  0.36302475  0.24250597    -0.12790
C494        C  0.09442466  0.36907926  0.23152757     0.00860
C495        C  0.11387346  0.34760964  0.22853420    -0.11310
C496        C  0.10802315  0.32095843  0.23771626     0.03360
C497        C  0.08146889  0.31530811  0.24742669    -0.10730
H498        H  0.05355100  0.37905301  0.24650161     0.08950
H499        H  0.13439132  0.35223448  0.22096189     0.06480
H500        H  0.07633795  0.29483066  0.25440225     0.06330
O501        O  0.23394381  0.19980411  0.29438949    -0.88110
C502        C  0.23358914  0.18113505  0.21248387     0.87920
Mg503      Mg  0.19728911  0.20876724  0.31732022     1.58150
O504        O  0.25844464  0.24703038  0.22851173    -0.87840
O505        O  0.27386879  0.21838126  0.28506596    -0.75170
C506        C  0.13034283  0.30037862  0.24136545     0.92970
O507        O  0.18696835  0.16831798  0.25971866    -0.74980
O508        O  0.12586209  0.28001091  0.25717611    -0.82490
Mg509      Mg  0.23285337  0.16318688  0.26942676     1.57960
C510        C  0.23055347  0.31308215  0.18258916     0.92890
O511        O  0.27691554  0.15088299  0.27880691    -0.80750
H512        H  0.28458152  0.27142147  0.24864950    -0.06100
C513        C  0.17713046  0.24315455  0.20555988     0.87830
O514        O  0.20416093  0.25503645  0.31290648    -0.75260
O515        O  0.24474397  0.18726778  0.23445217    -0.88030
O516        O  0.24270330  0.29015077  0.17962404    -0.80840
C517        C  0.29383111  0.21852998  0.17055550     0.93010
C518        C  0.30052093  0.15392778  0.26794703     0.92860
Mg519      Mg  0.19930898  0.29149130  0.23826075     1.57950
O520        O  0.15392199  0.30448408  0.23029362    -0.80760
O521        O  0.24519419  0.28532753  0.24797404    -0.75000
O522        O  0.29742796  0.20613487  0.19348242    -0.80840
O523        O  0.22165616  0.13771960  0.30592791    -0.82550
O524        O  0.13569191  0.24729419  0.31370513    -0.80870
C525        C  0.26373942  0.26806315  0.24162529     0.87300
O526        O  0.18723401  0.26707366  0.27309022    -0.88010
O527        O  0.19825137  0.25495597  0.21325018    -0.88120
O528        O  0.15852638  0.23586111  0.22247090    -0.75170
Mg529      Mg  0.28194583  0.21132546  0.23897438     1.57970
O530        O  0.27355484  0.23461593  0.16682788    -0.82550
H531        H  0.25731740  0.21693505  0.32349163    -0.06270
O532        O  0.17417627  0.20662896  0.27925154    -0.87820
H533        H  0.14756128  0.18217730  0.25982023    -0.06100
H534        H  0.20302510  0.29431523  0.29937944    -0.06280
C535        C  0.16854874  0.18554553  0.26639926     0.87270
C536        C  0.25510553  0.21156939  0.30199877     0.87860
C537        C  0.19797600  0.27314907  0.29526674     0.87910
H538        H  0.17486843  0.23809258  0.18399781    -0.06250
O539        O  0.22712806  0.19918759  0.19488804    -0.75280
Mg540      Mg  0.15057769  0.24237281  0.26864006     1.58000
H541        H  0.22826877  0.15998778  0.20862057    -0.06270
C542        C  0.20573470  0.14107473  0.32640966     0.92890
O543        O  0.15849760  0.21851878  0.34103606    -0.82510
C544        C  0.13850007  0.23480676  0.33663747     0.92950
O545        O  0.30589095  0.17345261  0.25129936    -0.82500
Mg546      Mg  0.23518517  0.24519460  0.19075981     1.58180
O547        O  0.19237560  0.16331751  0.33008417    -0.80830
O548        O  0.21265601  0.31706500  0.20147392    -0.82520
C549        C  0.97943431  0.27191633  0.30104939     0.00800
C550        C  0.95108318  0.27190812  0.30220600     0.00800
C551        C  0.65826215  0.29094529  0.98610687     0.00800
C552        C  0.66199106  0.28848152  0.01414951     0.00800
C553        C  0.83844814  0.37326815  0.23436842     0.03360
C554        C  0.86515876  0.36484255  0.24194695    -0.12790
C555        C  0.86963383  0.33774717  0.25065670     0.00860
C556        C  0.84721140  0.31962736  0.25159523    -0.11310
C557        C  0.82136867  0.32703650  0.24169474     0.03360
C558        C  0.81724365  0.35375978  0.23249326    -0.10730
H559        H  0.88200634  0.37922051  0.24097473     0.08950
H560        H  0.85020570  0.29913200  0.25963702     0.06480
H561        H  0.79709020  0.35985648  0.22517934     0.06330
C562        C  0.82547710  0.23624893  0.40348888     0.03360
C563        C  0.85223624  0.24348079  0.39534303    -0.12790
C564        C  0.85702937  0.25317259  0.36858607     0.00860
C565        C  0.83487237  0.25577406  0.35019467    -0.11310
C566        C  0.80798326  0.24828775  0.35820316     0.03360
C567        C  0.80345561  0.23927721  0.38517013    -0.10730
H568        H  0.86940227  0.24000281  0.40911996     0.08950
H569        H  0.83905121  0.26171704  0.32906609     0.06480
H570        H  0.78310781  0.23237023  0.39134778     0.06330
C571        C  0.60721472  0.22651677  0.09529500     0.03360
C572        C  0.58253646  0.21240622  0.10184835    -0.12790
C573        C  0.57460936  0.20953791  0.12976810     0.00860
C574        C  0.59097456  0.22198001  0.15009453    -0.11310
C575        C  0.61777362  0.22988250  0.14426691     0.03360
C576        C  0.62505159  0.23420509  0.11690026    -0.10730
H577        H  0.57027910  0.20327270  0.08574301     0.08950
H578        H  0.58407917  0.22258396  0.17129062     0.06480
H579        H  0.64498880  0.24318420  0.11239918     0.06330
C580        C  0.69803578  0.35178041  0.10655579     0.03360
C581        C  0.71221391  0.37672316  0.10959050    -0.12790
C582        C  0.72258378  0.38429899  0.13551950     0.00860
C583        C  0.71853664  0.36709696  0.15831287    -0.11310
C584        C  0.70507788  0.34193415  0.15555234     0.03360
C585        C  0.69491283  0.33444172  0.12951285    -0.10730
H586        H  0.71545784  0.38988546  0.09191398     0.08950
H587        H  0.72719777  0.37288407  0.17804087     0.06480
H588        H  0.68556502  0.31448966  0.12667069     0.06330
C589        C  0.56315862  0.11713511  0.25394672     0.03360
C590        C  0.58111340  0.13986560  0.25335803    -0.12790
C591        C  0.60823472  0.13774123  0.26297281     0.00860
C592        C  0.61724783  0.11229371  0.27318054    -0.11310
C593        C  0.59952907  0.08961045  0.27410512     0.03360
C594        C  0.57234111  0.09218884  0.26491661    -0.10730
H595        H  0.57395681  0.15911315  0.24494518     0.08950
H596        H  0.63837354  0.10973134  0.27988537     0.06480
H597        H  0.55858771  0.07481338  0.26618816     0.06330
C598        C  0.73730298  0.11300071  0.39271810     0.03360
C599        C  0.73705332  0.13326206  0.37196753    -0.12790
C600        C  0.72716363  0.12747910  0.34539779     0.00860
C601        C  0.71882011  0.10074764  0.33944198    -0.11310
C602        C  0.72088465  0.07980009  0.35920866     0.03360
C603        C  0.72901941  0.08629805  0.38614569    -0.10730
H604        H  0.74309763  0.15399867  0.37712443     0.08950
H605        H  0.71043154  0.09614662  0.31932000     0.06480
H606        H  0.72809111  0.07081181  0.40198422     0.06330
O607        O  0.73239976  0.26350516  0.21222720    -0.88110
C608        C  0.72714213  0.28188696  0.29379032     0.87920
Mg609      Mg  0.69648519  0.25518153  0.18835496     1.58150
O610        O  0.75249392  0.21552835  0.27948184    -0.87840
O611        O  0.77095772  0.24336347  0.22329760    -0.75170
C612        C  0.62822023  0.16072808  0.26008784     0.92970
O613        O  0.68370192  0.29587785  0.24386899    -0.74980
O614        O  0.62316817  0.18081917  0.24398844    -0.82490
Mg615      Mg  0.73044683  0.30038432  0.23668623     1.57960
C616        C  0.72300366  0.14972762  0.32492205     0.92890
O617        O  0.77587609  0.31224583  0.23139067    -0.80750
H618        H  0.78104730  0.19148250  0.26218828    -0.06100
C619        C  0.67096027  0.21867849  0.29933915     0.87830
O620        O  0.70312578  0.20871772  0.19201401    -0.75260
O621        O  0.73932100  0.27577872  0.27226675    -0.88030
O622        O  0.73439239  0.17285701  0.32912877    -0.80840
C623        C  0.78612773  0.24499792  0.33726460     0.93010
C624        C  0.79833820  0.30756543  0.24398361     0.92860
Mg625      Mg  0.69588853  0.17159046  0.26691535     1.57950
O626        O  0.65105896  0.15862518  0.27277026    -0.80760
O627        O  0.74201890  0.17699080  0.25939511    -0.75000
O628        O  0.78899809  0.25710116  0.31425702    -0.80840
O629        O  0.72210390  0.32543285  0.19838925    -0.82550
O630        O  0.63435020  0.21884444  0.18905225    -0.80870
C631        C  0.75954865  0.19447829  0.26729383     0.87300
O632        O  0.68526565  0.19638333  0.23146783    -0.88010
O633        O  0.69287145  0.20775215  0.29250074    -0.88120
O634        O  0.65308566  0.22552576  0.28162942    -0.75170
Mg635      Mg  0.77613353  0.25072488  0.26959964     1.57970
O636        O  0.76624493  0.22856410  0.34185569    -0.82550
H637        H  0.75671472  0.24568830  0.18413112    -0.06270
O638        O  0.67195223  0.25659866  0.22596306    -0.87820
H639        H  0.64435459  0.28173210  0.24330164    -0.06100
H640        H  0.70168617  0.16931324  0.20522026    -0.06280
C641        C  0.66563727  0.27813213  0.23770751     0.87270
C642        C  0.75351866  0.25104418  0.20552516     0.87860
C643        C  0.69657674  0.19045681  0.20943613     0.87910
H644        H  0.66724047  0.22319208  0.32084575    -0.06250
O645        O  0.72046781  0.26389171  0.31144051    -0.75280
Mg646      Mg  0.64773872  0.22039364  0.23490348     1.58000
H647        H  0.72130310  0.30297092  0.29729837    -0.06270
C648        C  0.70557885  0.32180893  0.17844308     0.92890
O649        O  0.65897860  0.24747271  0.16303136    -0.82510
C650        C  0.63815621  0.23224444  0.16668971     0.92950
O651        O  0.80131559  0.28710839  0.25972623    -0.82500
Mg652      Mg  0.72830901  0.21785457  0.31675652     1.58180
O653        O  0.69096199  0.30027714  0.17653260    -0.80830
O654        O  0.70708672  0.14568016  0.30445118    -0.82520
C655        C  0.65962041  0.99471642  0.31281235     0.00800
C656        C  0.65739087  0.96675942  0.31000893     0.00800
C657        C  0.69816763  0.87304300  0.36815446     0.03360
C658        C  0.70967665  0.86678145  0.39408967    -0.12790
C659        C  0.71329588  0.83906342  0.40198726     0.00860
C660        C  0.70395997  0.81875592  0.38354880    -0.11310
C661        C  0.69960798  0.82493818  0.35601573     0.03360
C662        C  0.69484414  0.85213842  0.34865934    -0.10730
H663        H  0.71616878  0.88340682  0.40705228     0.08950
H664        H  0.70400369  0.79733956  0.38934814     0.06480
H665        H  0.68966327  0.85728839  0.32757216     0.06330
C666        C  0.61234814  0.88389300  0.24275589     0.03360
C667        C  0.58571060  0.87604646  0.23436923    -0.12790
C668        C  0.58124805  0.84976102  0.22316470     0.00860
C669        C  0.60395448  0.83191599  0.22028866    -0.11310
C670        C  0.62952083  0.83815601  0.23195179     0.03360
C671        C  0.63347696  0.86419066  0.24306788    -0.10730
H672        H  0.56874391  0.88994751  0.23755253     0.08950
H673        H  0.60075919  0.81173925  0.21155236     0.06480
H674        H  0.65303573  0.86912057  0.25253345     0.06330
C675        C  0.87451784  0.72948777  0.36441050     0.03360
C676        C  0.86927266  0.74121018  0.39032575    -0.12790
C677        C  0.84363206  0.75337421  0.39604229     0.00860
C678        C  0.82355310  0.75464703  0.37503728    -0.11310
C679        C  0.82796052  0.74196227  0.34930000     0.03360
C680        C  0.85374207  0.72956955  0.34428723    -0.10730
H681        H  0.88497085  0.74046862  0.40611299     0.08950
H682        H  0.80398864  0.76441983  0.37916445     0.06480
H683        H  0.85760863  0.71927209  0.32486350     0.06330
C684        C  0.85841350  0.60946451  0.27803056     0.03360
C685        C  0.85476062  0.58385458  0.26551740    -0.12790
C686        C  0.82870136  0.57617070  0.25584580     0.00860
C687        C  0.80655138  0.59456653  0.25802998    -0.11310
C688        C  0.81004814  0.62024250  0.27062548     0.03360
C689        C  0.83572094  0.62676183  0.28198529    -0.10730
H690        H  0.87235608  0.57062684  0.26193676     0.08950
H691        H  0.78714054  0.58948084  0.24830496     0.06480
H692        H  0.83897932  0.64662424  0.29139449     0.06330
C693        C  0.60273103  0.70713281  0.10773591     0.03360
C694        C  0.57557271  0.71512411  0.11328543    -0.12790
C695        C  0.56801744  0.72288694  0.14007167     0.00860
C696        C  0.58784673  0.72338044  0.16099758    -0.11310
C697        C  0.61513091  0.71564864  0.15561564     0.03360
C698        C  0.62231500  0.70708474  0.12893099    -0.10730
H699        H  0.56066043  0.71610751  0.09675031     0.08950
H700        H  0.58220148  0.73108034  0.18119511     0.06480
H701        H  0.64347169  0.70165704  0.12416157     0.06330
C702        C  0.72300286  0.61789298  0.10005668     0.03360
C703        C  0.73241986  0.59156763  0.10679092    -0.12790
C704        C  0.74147905  0.58585618  0.13371631     0.00860
C705        C  0.74407458  0.60753429  0.15270502    -0.11310
C706        C  0.73326015  0.63339794  0.14686311     0.03360
C707        C  0.72240403  0.63814629  0.12068345    -0.10730
H708        H  0.73266066  0.57567001  0.09140248     0.08950
H709        H  0.75292318  0.60373228  0.17276770     0.06480
H710        H  0.71362523  0.65802529  0.11603579     0.06330
O711        O  0.69499626  0.74905187  0.21012237    -0.88110
C712        C  0.67286843  0.74680355  0.29094528     0.87920
Mg713      Mg  0.70463133  0.71281377  0.18772305     1.58150
O714        O  0.74057507  0.76998678  0.27955195    -0.87840
O715        O  0.71561951  0.78729051  0.22125398    -0.75170
C716        C  0.78951907  0.64228537  0.26672322     0.92970
O717        O  0.66039184  0.70228660  0.24261105    -0.74980
O718        O  0.77018857  0.63865443  0.24951646    -0.82490
Mg719      Mg  0.65698375  0.74813518  0.23349839     1.57960
C720        C  0.80503455  0.73870446  0.32891389     0.92890
O721        O  0.64634933  0.79301309  0.22520419    -0.80750
H722        H  0.76706450  0.79627886  0.26230697    -0.06100
C723        C  0.73268646  0.68967783  0.30107069     0.87830
O724        O  0.75099011  0.71883830  0.19465580    -0.75260
O725        O  0.68029956  0.75810779  0.26938614    -0.88030
O726        O  0.78225575  0.75171602  0.33215488    -0.80840
C727        C  0.70607825  0.80418463  0.33489147     0.93010
C728        C  0.65005082  0.81617818  0.23662213     0.92860
Mg729      Mg  0.78354279  0.71074677  0.27108516     1.57950
O730        O  0.79334071  0.66524741  0.27869784    -0.80760
O731        O  0.78010385  0.75680107  0.26231812    -0.75000
O732        O  0.69612508  0.80718754  0.31091050    -0.80840
O733        O  0.63229782  0.73705561  0.19588893    -0.82550
O734        O  0.74140961  0.65067329  0.19214492    -0.80870
C735        C  0.76274034  0.77536319  0.26819216     0.87300
O736        O  0.76026455  0.70077579  0.23477678    -0.88010
O737        O  0.74607224  0.71032338  0.29490527    -0.88120
O738        O  0.72557324  0.67215660  0.28311340    -0.75170
Mg739      Mg  0.70571879  0.79422309  0.26687356     1.57970
O740        O  0.72328262  0.78522390  0.34062778    -0.82550
H741        H  0.71496190  0.77199295  0.18241093    -0.06270
O742        O  0.69998380  0.68961358  0.22535797    -0.87820
H743        H  0.67379697  0.66294985  0.24246643    -0.06100
H744        H  0.78955933  0.71656125  0.21047317    -0.06280
C745        C  0.67788981  0.68393022  0.23665118     0.87270
C746        C  0.70835315  0.76959634  0.20357460     0.87860
C747        C  0.76794839  0.71187448  0.21321493     0.87910
H748        H  0.72606597  0.68692271  0.32218593    -0.06250
O749        O  0.68992877  0.74017754  0.30955905    -0.75280
Mg750      Mg  0.73427186  0.66485512  0.23711243     1.58000
H751        H  0.65136746  0.74162436  0.29364407    -0.06270
C752        C  0.63670672  0.71998915  0.17657443     0.92890
O753        O  0.71468194  0.67481542  0.16401992    -0.82510
C754        C  0.73010195  0.65434492  0.16874205     0.92950
O755        O  0.66949436  0.82017770  0.25364809    -0.82500
Mg756      Mg  0.73609511  0.74684536  0.31734027     1.58180
O757        O  0.65974070  0.70774597  0.17384776    -0.80830
O758        O  0.80838018  0.72174422  0.30919164    -0.82520
C759        C  0.95635061  0.65892634  0.32027844     0.00800
C760        C  0.98206853  0.66213435  0.30831816     0.00800
C761        C  0.20616131  0.84188037  0.39508084     0.03360
C762        C  0.21548083  0.86879391  0.39066305    -0.12790
C763        C  0.22677543  0.87635903  0.36496303     0.00860
C764        C  0.22695047  0.85686695  0.34349134    -0.11310
C765        C  0.21532485  0.83083684  0.34692373     0.03360
C766        C  0.20518918  0.82344799  0.37297309    -0.10730
H767        H  0.21347137  0.88353312  0.40707787     0.08950
H768        H  0.23606175  0.86215810  0.32377603     0.06480
H769        H  0.19703805  0.80305951  0.37639906     0.06330
C770        C  0.33639569  0.87315783  0.26208678     0.03360
C771        C  0.36213283  0.86978569  0.24931953    -0.12790
C772        C  0.36975735  0.84404989  0.23912908     0.00860
C773        C  0.35195687  0.82169684  0.24205032    -0.11310
C774        C  0.32628508  0.82476825  0.25489895     0.03360
C775        C  0.31872698  0.85062035  0.26516319    -0.10730
H776        H  0.37624136  0.88691016  0.24770667     0.08950
H777        H  0.35818537  0.80189687  0.23402720     0.06480
H778        H  0.29888300  0.85349778  0.27509131     0.06330
C779        C  0.24760852  0.59853059  0.10833297     0.03360
C780        C  0.23448282  0.57381754  0.11485404    -0.12790
C781        C  0.22028610  0.57118687  0.13992500     0.00860
C782        C  0.22046917  0.59303365  0.15881194    -0.11310
C783        C  0.23500354  0.61727015  0.15350081     0.03360
C784        C  0.24890409  0.61962162  0.12824259    -0.10730
H785        H  0.23507697  0.55708058  0.10030442     0.08950
H786        H  0.20897220  0.59094740  0.17789359     0.06480
H787        H  0.25925020  0.63856987  0.12340752     0.06330
C788        C  0.06973680  0.61966504  0.25189041     0.03360
C789        C  0.07552042  0.59218406  0.24506552    -0.12790
C790        C  0.10230382  0.58437596  0.23709660     0.00860
C791        C  0.12295325  0.60437959  0.23464590    -0.11310
C792        C  0.11743318  0.63179909  0.24139713     0.03360
C793        C  0.09106312  0.63893974  0.25091367    -0.10730
H794        H  0.05930662  0.57695425  0.24578345     0.08950
H795        H  0.14344796  0.59836653  0.22804325     0.06480
H796        H  0.08690325  0.65975262  0.25740376     0.06330
C797        C  0.10860264  0.72219805  0.39946075     0.03360
C798        C  0.08346557  0.71004295  0.39160378    -0.12790
C799        C  0.07983993  0.70045424  0.36447039     0.00860
C800        C  0.10200381  0.70156566  0.34580821    -0.11310
C801        C  0.12712156  0.71361445  0.35323882     0.03360
C802        C  0.12974270  0.72462506  0.37958664    -0.10730
H803        H  0.06669973  0.70835415  0.40603175     0.08950
H804        H  0.09906056  0.69416033  0.32496233     0.06480
H805        H  0.14872674  0.73503711  0.38486610     0.06330
C806        C  0.33784564  0.71807112  0.10135997     0.03360
C807        C  0.36463255  0.72205067  0.11223119    -0.12790
C808        C  0.36857063  0.73843871  0.13585702     0.00860
C809        C  0.34527976  0.74753824  0.15058556    -0.11310
C810        C  0.31870322  0.74253943  0.14071419     0.03360
C811        C  0.31593467  0.73249942  0.11398763    -0.10730
H812        H  0.38232217  0.71240629  0.10288573     0.08950
H813        H  0.34788775  0.75703110  0.17060161     0.06480
H814        H  0.29557669  0.73269046  0.10502229     0.06330
O815        O  0.20343822  0.69859043  0.20589128    -0.88110
C816        C  0.20888071  0.68015139  0.28895491     0.87920
Mg817      Mg  0.23885307  0.70952682  0.18149699     1.58150
O818        O  0.18375879  0.74669929  0.27568708    -0.87840
O819        O  0.16531420  0.71873142  0.21898382    -0.75170
C820        C  0.30620051  0.80209869  0.25445694     0.92970
O821        O  0.25371271  0.66875156  0.23755315    -0.74980
O822        O  0.30989694  0.78253662  0.23764833    -0.82490
Mg823      Mg  0.20727786  0.66258558  0.23180558     1.57960
C824        C  0.21629205  0.81048826  0.32426123     0.92890
O825        O  0.16214438  0.64795750  0.22867745    -0.80750
H826        H  0.15440853  0.77158103  0.26136102    -0.06100
C827        C  0.26511958  0.74144589  0.29355542     0.87830
O828        O  0.23006667  0.75553091  0.18825859    -0.75260
O829        O  0.19777213  0.68715294  0.26726035    -0.88030
O830        O  0.20278549  0.78825469  0.32685063    -0.80840
C831        C  0.14948638  0.71715064  0.33268755     0.93010
C832        C  0.13961222  0.65252236  0.24149173     0.92860
Mg833      Mg  0.23981113  0.79099171  0.26455503     1.57950
O834        O  0.28469311  0.80375708  0.26936961    -0.80760
O835        O  0.19323424  0.78679102  0.25869155    -0.75000
O836        O  0.14751160  0.70460437  0.30984402    -0.80840
O837        O  0.21731869  0.63748447  0.19427105    -0.82550
O838        O  0.29683303  0.75330100  0.18310617    -0.80870
C839        C  0.17607163  0.76845116  0.26542362     0.87300
O840        O  0.24810249  0.76725790  0.22781806    -0.88010
O841        O  0.24340770  0.75365016  0.28851688    -0.88120
O842        O  0.28225802  0.73540593  0.27465521    -0.75170
Mg843      Mg  0.16042510  0.71121780  0.26526822     1.57970
O844        O  0.16924583  0.73357963  0.33761068    -0.82550
H845        H  0.17811526  0.71680156  0.17922165    -0.06270
O846        O  0.26356041  0.70787171  0.21827484    -0.87820
H847        H  0.29256177  0.68381578  0.23455463    -0.06100
H848        H  0.22903852  0.79426167  0.20349365    -0.06280
C849        C  0.27097872  0.68669758  0.22992923     0.87270
C850        C  0.18206515  0.71113321  0.20037412     0.87860
C851        C  0.23569555  0.77335043  0.20649356     0.87910
H852        H  0.26927214  0.73508235  0.31446719    -0.06250
O853        O  0.21506523  0.69752567  0.30731157    -0.75280
Mg854      Mg  0.28610208  0.74437485  0.22824254     1.58000
H855        H  0.21410958  0.65885594  0.29205573    -0.06270
C856        C  0.23274196  0.64064451  0.17321700     0.92890
O857        O  0.27691002  0.72197868  0.15651484    -0.82510
C858        C  0.29551659  0.73998376  0.16063567     0.92950
O859        O  0.13596365  0.67392155  0.25583820    -0.82500
Mg860      Mg  0.20779670  0.74358347  0.31295605     1.58180
O861        O  0.24494282  0.66343166  0.16825564    -0.80830
O862        O  0.23175641  0.81498828  0.30353679    -0.82520
C863        C  0.30114227  0.64446942  0.98763918     0.00800
C864        C  0.30480943  0.64093717  0.01574969     0.00800
C865        C  0.35105148  0.67860246  0.06882439    -0.05540
C866        C  0.33175289  0.69807394  0.07834212     0.00380
C867        C  0.30467674  0.69472022  0.06858486    -0.08190
C868        C  0.30219362  0.68517105  0.04137038    -0.05570
C869        C  0.31860918  0.66269244  0.03338560     0.00370
C870        C  0.34351189  0.65868258  0.04890361    -0.08100
C871        C  0.36262608  0.63432227  0.04658643     0.62280
H872        H  0.37092579  0.67685350  0.07861602     0.12970
H873        H  0.28301171  0.68888028  0.03079013     0.12990
C874        C  0.28465506  0.68034681  0.08802979     0.62510
F875        F  0.38906108  0.64315161  0.04056731    -0.22650
F876        F  0.35486891  0.61621306  0.02658035    -0.19980
F877        F  0.36301603  0.62059413  0.07151005    -0.19660
F878        F  0.25791181  0.68462858  0.07938203    -0.19710
F879        F  0.28632365  0.68800658  0.11521034    -0.20030
F880        F  0.29090046  0.65280478  0.08781639    -0.22710
C881        C  0.27992722  0.58897922  0.06885526    -0.05540
C882        C  0.25765512  0.60379053  0.07995269     0.00380
C883        C  0.24585117  0.62482708  0.06410547    -0.08190
C884        C  0.26142645  0.63559255  0.04238679    -0.05570
C885        C  0.28555659  0.62292522  0.03232381     0.00370
C886        C  0.29267977  0.59710761  0.04386975    -0.08100
C887        C  0.31139578  0.57658477  0.02992364     0.62280
H888        H  0.28721239  0.57090573  0.07954622     0.12970
H889        H  0.25512701  0.65497798  0.03427865     0.12990
C890        C  0.21708784  0.63590574  0.06996407     0.62510
F891        F  0.33396338  0.57128350  0.04639567    -0.22650
F892        F  0.32014470  0.58534574  0.00430103    -0.19980
F893        F  0.29706171  0.55239055  0.02619112    -0.19660
F894        F  0.21632386  0.65055605  0.09428157    -0.19710
F895        F  0.19877321  0.61429081  0.07180515    -0.20030
F896        F  0.20819769  0.65299667  0.04904398    -0.22710
C897        C  0.01528946  0.65970526  0.34653444    -0.05540
C898        C  0.00454601  0.67540964  0.32471657     0.00380
C899        C  0.01763401  0.70071101  0.31796813    -0.08190
C900        C  0.04116231  0.70848149  0.33282911    -0.05570
C901        C  0.05240117  0.69220544  0.35374158     0.00370
C902        C  0.03916011  0.66747103  0.36103425    -0.08100
C903        C  0.05087587  0.64870228  0.38299200     0.62280
H904        H  0.00543496  0.64045517  0.35139186     0.12970
H905        H  0.05160026  0.72739189  0.32740065     0.12990
C906        C  0.00888305  0.72070590  0.29563908     0.62510
F907        F  0.03633034  0.62438970  0.38490202    -0.22650
F908        F  0.04965361  0.66143336  0.40838414    -0.19980
F909        F  0.07799748  0.64241423  0.37680502    -0.19660
F910        F  0.00475595  0.74623543  0.30733736    -0.19710
F911        F  0.98503372  0.71363182  0.28225379    -0.20030
F912        F  0.02971014  0.72278197  0.27621416    -0.22710
C913        C  0.00377976  0.66140094  0.26088417    -0.05540
C914        C  0.99122275  0.64667711  0.28245905     0.00380
C915        C  0.99869803  0.61870955  0.28357776    -0.08190
C916        C  0.02693510  0.61336802  0.28006024    -0.05570
C917        C  0.04159484  0.62865640  0.26020896     0.00370
C918        C  0.02823974  0.65186034  0.24832526    -0.08100
C919        C  0.03883834  0.66702395  0.22310621     0.62280
H920        H  0.99458606  0.67994073  0.25340755     0.12970
H921        H  0.03517461  0.59392477  0.28693235     0.12990
C922        C  0.98225149  0.59923895  0.26542637     0.62510
F923        F  0.01693511  0.67527249  0.20691064    -0.22650
F924        F  0.05559558  0.65073014  0.20683242    -0.19980
F925        F  0.05328975  0.69000330  0.23127345    -0.19660
F926        F  0.95448997  0.60485554  0.26593717    -0.19710
F927        F  0.98640657  0.57246809  0.27373305    -0.20030
F928        F  0.99073844  0.60155954  0.23821362    -0.22710
C929        C  0.90215637  0.60497385  0.30353445    -0.05540
C930        C  0.88621283  0.61972541  0.28467036     0.00380
C931        C  0.89626021  0.64490678  0.27406687    -0.08190
C932        C  0.91963068  0.65647721  0.28610545    -0.05570
C933        C  0.93496977  0.64247485  0.30601968     0.00370
C934        C  0.92727417  0.61524692  0.31340730    -0.08100
C935        C  0.94547271  0.59507723  0.32876055     0.62280
H936        H  0.89507746  0.58503132  0.31037782     0.12970
H937        H  0.92613416  0.67679507  0.27978977     0.12990
C938        C  0.88323676  0.66042552  0.25030358     0.62510
F939        F  0.93314168  0.58718329  0.35317053    -0.22650
F940        F  0.97132286  0.60540212  0.33415876    -0.19980
F941        F  0.94879463  0.57176340  0.31293932    -0.19660
F942        F  0.86958470  0.68319416  0.26040771    -0.19710
F943        F  0.86502066  0.64460724  0.23533565    -0.20030
F944        F  0.90363129  0.66901961  0.23224954    -0.22710
C945        C  0.94250563  0.70708829  0.33247235    -0.05540
C946        C  0.94409190  0.67947369  0.34071682     0.00380
C947        C  0.92611465  0.67137191  0.36254370    -0.08190
C948        C  0.90384736  0.68830817  0.37013765    -0.05570
C949        C  0.90057901  0.71441896  0.35890250     0.00370
C950        C  0.92143184  0.72487152  0.34156627    -0.08100
C951        C  0.92106275  0.75455857  0.33240231     0.62280
H952        H  0.95624674  0.71433462  0.31716343     0.12970
H953        H  0.88881044  0.68101412  0.38501362     0.12990
C954        C  0.93004084  0.64589558  0.37943728     0.62510
F955        F  0.94449524  0.76137505  0.31756096    -0.22650
F956        F  0.91979259  0.77137204  0.35532481    -0.19980
F957        F  0.89837858  0.75942780  0.31599313    -0.19660
F958        F  0.95511428  0.63374387  0.37415826    -0.19710
F959        F  0.90869547  0.62792573  0.37424204    -0.20030
F960        F  0.92949540  0.65261405  0.40714146    -0.22710
C961        C  0.65470223  0.93371157  0.34834179    -0.05540
C962        C  0.67175602  0.94694757  0.32894875     0.00380
C963        C  0.69951829  0.93754806  0.32600514    -0.08190
C964        C  0.70841741  0.91515818  0.34195895    -0.05570
C965        C  0.69060900  0.90117530  0.35974927     0.00370
C966        C  0.66356195  0.91100795  0.36372231    -0.08100
C967        C  0.64379794  0.89670263  0.38330561     0.62280
H968        H  0.63375226  0.94064397  0.35069839     0.12970
H969        H  0.72903903  0.90708304  0.33889588     0.12990
C970        C  0.72065512  0.94855632  0.30586787     0.62510
F971        F  0.61863566  0.90999122  0.38493592    -0.22650
F972        F  0.65506367  0.89605756  0.40941737    -0.19980
F973        F  0.63912016  0.87018811  0.37447014    -0.19660
F974        F  0.74277372  0.95901663  0.32035494    -0.19710
F975        F  0.71064800  0.96874158  0.28920107    -0.20030
F976        F  0.72988662  0.92751500  0.28909509    -0.22710
C977        C  0.65529272  0.94291326  0.26550968    -0.05540
C978        C  0.64042940  0.95313538  0.28816821     0.00380
C979        C  0.61269283  0.94413055  0.29181705    -0.08190
C980        C  0.60271870  0.92275312  0.27497143    -0.05570
C981        C  0.61875762  0.91166834  0.25355979     0.00370
C982        C  0.64399846  0.92446349  0.24678978    -0.08100
C983        C  0.66037686  0.91850950  0.22071756     0.62280
H984        H  0.67647632  0.94862775  0.26237139     0.12970
H985        H  0.58286108  0.91368886  0.27965515     0.12990
C986        C  0.59289556  0.95523080  0.31325152     0.62510
F987        F  0.66766984  0.94297796  0.20831460    -0.22650
F988        F  0.64547909  0.90355633  0.20169330    -0.19980
F989        F  0.68416107  0.90437189  0.22730077    -0.19660
F990        F  0.56956926  0.96493296  0.30018071    -0.19710
F991        F  0.60381419  0.97638183  0.32836801    -0.20030
F992        F  0.58524805  0.93447322  0.33109803    -0.22710
C993        C  0.70289866  0.02050075  0.31437714    -0.05540
C994        C  0.68191599  0.00769407  0.32963582     0.00380
C995        C  0.67893850  0.01459806  0.35801940    -0.08190
C996        C  0.69323344  0.03768524  0.36799097    -0.05570
C997        C  0.71245449  0.05167017  0.35149927     0.00370
C998        C  0.71989797  0.04044024  0.32572869    -0.08100
C999        C  0.74488595  0.04932429  0.30906674     0.62280
H1000       H  0.70559344  0.01603831  0.29280022     0.12970
H1001       H  0.68889581  0.04537667  0.38846327     0.12990
C1002       C  0.66267522  0.99728652  0.37837073     0.62510
F1003       F  0.75946369  0.02634373  0.30086526    -0.22650
F1004       F  0.76267041  0.06564179  0.32404437    -0.19980
F1005       F  0.73644474  0.06336107  0.28583591    -0.19660
F1006       F  0.67776849  0.97408460  0.38437584    -0.19710
F1007       F  0.63742706  0.98964442  0.36812239    -0.20030
F1008       F  0.65799005  0.01113929  0.40284399    -0.22710
C1009       C  0.62319076  0.04596310  0.26385610    -0.05540
C1010       C  0.61042540  0.06286422  0.28334440     0.00380
C1011       C  0.61119026  0.05567130  0.31135976    -0.08190
C1012       C  0.62537751  0.03182902  0.31904573    -0.05570
C1013       C  0.64018644  0.01545823  0.30004854     0.00370
C1014       C  0.63925897  0.02316124  0.27160504    -0.08100
C1015       C  0.65551109  0.00969945  0.24861423     0.62280
H1016       H  0.62217812  0.05195752  0.24236449     0.12970
H1017       H  0.62624773  0.02686965  0.34058630     0.12990
C1018       C  0.59786820  0.07378261  0.33309831     0.62510
F1019       F  0.63860563  0.99170218  0.23464382    -0.22650
F1020       F  0.67827082  0.99616103  0.25811214    -0.19980
F1021       F  0.66499819  0.02918585  0.23014154    -0.19660
F1022       F  0.57016499  0.07696671  0.32735065    -0.19710
F1023       F  0.61041511  0.09920578  0.33315505    -0.20030
F1024       F  0.60018802  0.06279357  0.35927848    -0.22710
C1025       C  0.65264821  0.32280581  0.05039875    -0.05540
C1026       C  0.67228612  0.31166441  0.03203296     0.00380
C1027       C  0.70044006  0.31942084  0.03540472    -0.08190
C1028       C  0.70789091  0.33434185  0.05926642    -0.05570
C1029       C  0.68834780  0.34210370  0.07918500     0.00370
C1030       C  0.66011356  0.33803430  0.07372839    -0.08100
C1031       C  0.63791310  0.34957469  0.09259502     0.62280
H1032       H  0.63111148  0.31820559  0.04719284     0.12970
H1033       H  0.72931691  0.33917428  0.06312376     0.12990
C1034       C  0.72286499  0.31304011  0.01450915     0.62510
F1035       F  0.61194281  0.34716113  0.08113295    -0.22650
F1036       F  0.64286473  0.37707769  0.09726511    -0.19980
F1037       F  0.63777724  0.33582509  0.11746282    -0.19660
F1038       F  0.72244234  0.33269901  0.99405517    -0.19710
F1039       F  0.71943035  0.28762116  0.00287320    -0.20030
F1040       F  0.74869726  0.31338873  0.02652040    -0.22710
C1041       C  0.61811057  0.26715138  0.03035547    -0.05540
C1042       C  0.64716890  0.26608142  0.02969892     0.00380
C1043       C  0.66074199  0.24644980  0.04671007    -0.08190
C1044       C  0.64444105  0.22758635  0.06127884    -0.05570
C1045       C  0.61658067  0.23301660  0.06671129     0.00370
C1046       C  0.60266062  0.25222397  0.04990425    -0.08100
C1047       C  0.57219818  0.25828551  0.05366455     0.62280
H1048       H  0.60789961  0.28231641  0.01774870     0.12970
H1049       H  0.65423746  0.21196723  0.07369609     0.12990
C1050       C  0.69136610  0.24736772  0.05373759     0.62510
F1051       F  0.56311820  0.27827830  0.03562331    -0.22650
F1052       F  0.56713991  0.26739660  0.08019450    -0.19980
F1053       F  0.55707992  0.23482820  0.04876910    -0.19660
F1054       F  0.69716987  0.27137324  0.06749493    -0.19710
F1055       F  0.70763962  0.24547786  0.03067747    -0.20030
F1056       F  0.69906477  0.22608411  0.07092423    -0.22710
C1057       C  0.92483950  0.28360317  0.34459910    -0.05540
C1058       C  0.93474451  0.26255399  0.32720336     0.00380
C1059       C  0.92239526  0.23620220  0.33001438    -0.08190
C1060       C  0.89741720  0.23380891  0.34455333    -0.05570
C1061       C  0.88547420  0.25618859  0.35799006     0.00370
C1062       C  0.90017509  0.28096499  0.35972907    -0.08100
C1063       C  0.88915782  0.30469604  0.37662131     0.62280
H1064       H  0.93546528  0.30300434  0.34474575     0.12970
H1065       H  0.88688846  0.21421791  0.34518544     0.12990
C1066       C  0.93503378  0.20965961  0.32031023     0.62510
F1067       F  0.90671802  0.32701967  0.37593357    -0.22650
F1068       F  0.88610240  0.29661717  0.40377314    -0.19980
F1069       F  0.86384020  0.31280450  0.36649141    -0.19660
F1070       F  0.93938994  0.19284885  0.34281591    -0.19710
F1071       F  0.95990638  0.21365027  0.30759079    -0.20030
F1072       F  0.91736826  0.19642155  0.30239069    -0.22710
C1073       C  0.93385714  0.31851396  0.29083308    -0.05540
C1074       C  0.93521473  0.29059150  0.28350396     0.00380
C1075       C  0.91867439  0.28124857  0.26132706    -0.08190
C1076       C  0.90272786  0.30031262  0.24707834    -0.05570
C1077       C  0.89702287  0.32626650  0.25812725     0.00370
C1078       C  0.91322737  0.33590454  0.28034924    -0.08100
C1079       C  0.90769457  0.36312669  0.29448470     0.62280
H1080       H  0.94735250  0.32591111  0.30686871     0.12970
H1081       H  0.89070206  0.29323053  0.22965109     0.12990
C1082       C  0.91459156  0.25170534  0.25265585     0.62510
F1083       F  0.92327706  0.36614468  0.31814002    -0.22650
F1084       F  0.88023949  0.36494663  0.30206529    -0.19980
F1085       F  0.91429365  0.38441137  0.27694879    -0.19660
F1086       F  0.88723128  0.24463343  0.25647001    -0.19710
F1087       F  0.93035202  0.23360261  0.26728692    -0.20030
F1088       F  0.92106607  0.24884560  0.22500370    -0.22710
C1089       C  0.01810318  0.31184373  0.24425876    -0.05540
C1090       C  0.03447567  0.32845515  0.26090591     0.00380
C1091       C  0.02836689  0.33092218  0.28920180    -0.08190
C1092       C  0.00767963  0.31416009  0.30037340    -0.05570
C1093       C  0.99472620  0.29350517  0.28474480     0.00370
C1094       C  0.99899380  0.29345647  0.25560547    -0.08100
C1095       C  0.98638657  0.27360396  0.23540030     0.62280
H1096       H  0.02277246  0.31084008  0.22238981     0.12970
H1097       H  0.00285472  0.31590205  0.32203424     0.12990
C1098       C  0.04465709  0.35000440  0.30770516     0.62510
F1099       F  0.00675929  0.26204396  0.21906142    -0.22650
F1100       F  0.96811798  0.28747811  0.21864586    -0.19980
F1101       F  0.97290650  0.25266186  0.24821913    -0.19660
F1102       F  0.04200782  0.37662050  0.29841335    -0.19710
F1103       F  0.07220370  0.34272074  0.30743173    -0.20030
F1104       F  0.03545484  0.34910641  0.33473633    -0.22710
C1105       C  0.03673078  0.23096221  0.33532589    -0.05540
C1106       C  0.04057122  0.24666091  0.35921466     0.00380
C1107       C  0.01994478  0.26571267  0.36696506    -0.08190
C1108       C  0.99743559  0.26968699  0.34903331    -0.05570
C1109       C  0.99685268  0.25800598  0.32243660     0.00370
C1110       C  0.01725562  0.23817649  0.31539073    -0.08100
C1111       C  0.02189790  0.22731246  0.28626861     0.62280
H1112       H  0.05220824  0.21570271  0.33045068     0.12970
H1113       H  0.98194781  0.28473899  0.35425056     0.12990
C1114       C  0.02224609  0.28294842  0.39288107     0.62510
F1115       F  0.04095938  0.20620340  0.28560855    -0.22650
F1116       F  0.03209770  0.24803038  0.26986465    -0.19980
F1117       F  0.99801592  0.21719711  0.27505806    -0.19660
F1118       F  0.04765435  0.29573355  0.39379149    -0.19710
F1119       F  0.01901141  0.26651011  0.41581592    -0.20030
F1120       F  0.00217791  0.30308542  0.39398732    -0.22710
C1121       C  0.30559412  0.94347669  0.27581190    -0.05540
C1122       C  0.30922049  0.94541418  0.30454581     0.00380
C1123       C  0.32622080  0.92549022  0.31769025    -0.08190
C1124       C  0.33528197  0.90275466  0.30264806    -0.05570
C1125       C  0.32882027  0.89944703  0.27494648     0.00370
C1126       C  0.31430336  0.92020814  0.26090784    -0.08100
C1127       C  0.30691827  0.91693665  0.23075760     0.62280
H1128       H  0.29469654  0.95954498  0.26522826     0.12970
H1129       H  0.34722732  0.88696940  0.31286667     0.12990
C1130       C  0.33644836  0.92698792  0.34707535     0.62510
F1131       F  0.29248896  0.93930540  0.22087084    -0.22650
F1132       F  0.29064059  0.89393026  0.22742135    -0.19980
F1133       F  0.33067321  0.91400088  0.21521408    -0.19660
F1134       F  0.33016398  0.95127483  0.35979217    -0.19710
F1135       F  0.36486568  0.92447215  0.34715840    -0.20030
F1136       F  0.32528743  0.90566790  0.36215820    -0.22710
C1137       C  0.27107791  0.94145071  0.36303121    -0.05540
C1138       C  0.26736023  0.94881863  0.33532316     0.00380
C1139       C  0.24513710  0.93667310  0.32069926    -0.08190
C1140       C  0.23001809  0.91572348  0.33336775    -0.05570
C1141       C  0.23769454  0.90441704  0.35879363     0.00370
C1142       C  0.25830091  0.91804184  0.37445015    -0.08100
C1143       C  0.26879568  0.90708833  0.40178748     0.62280
H1144       H  0.28570614  0.95280784  0.37513442     0.12970
H1145       H  0.21336690  0.90626276  0.32193728     0.12990
C1146       C  0.23651127  0.94375485  0.29150083     0.62510
F1147       F  0.29259633  0.92033448  0.41006884    -0.22650
F1148       F  0.27492684  0.87952372  0.39946716    -0.19980
F1149       F  0.24923488  0.91101899  0.42213037    -0.19660
F1150       F  0.24099116  0.92136413  0.27459834    -0.19710
F1151       F  0.25027473  0.96582489  0.28057213    -0.20030
F1152       F  0.20868424  0.94998375  0.29132265    -0.22710
C1153       C  0.24452530  0.00980265  0.33008810    -0.05540
C1154       C  0.27237098  0.00888695  0.33803349     0.00380
C1155       C  0.28118663  0.02707495  0.35917880    -0.08190
C1156       C  0.26263651  0.04687983  0.36937110    -0.05570
C1157       C  0.23582710  0.04921900  0.35914099     0.00370
C1158       C  0.22606844  0.02948054  0.34027993    -0.08100
C1159       C  0.19678427  0.02879962  0.32943083     0.62280
H1160       H  0.23712829  0.99599937  0.31459219     0.12970
H1161       H  0.26960836  0.06214115  0.38397586     0.12990
C1162       C  0.31015756  0.02662184  0.37051941     0.62510
F1163       F  0.18625923  0.00263102  0.33238073    -0.22650
F1164       F  0.19698014  0.03556336  0.30175928    -0.19980
F1165       F  0.17929545  0.04651687  0.34321558    -0.19660
F1166       F  0.32827535  0.03665247  0.35103929    -0.19710
F1167       F  0.31719310  0.00022315  0.37771665    -0.20030
F1168       F  0.31262822  0.04268063  0.39390309    -0.22710
C1169       C  0.28846100  0.02133117  0.27986953    -0.05540
C1170       C  0.30624382  0.00752739  0.29805391     0.00380
C1171       C  0.33483241  0.01426753  0.29705440    -0.08190
C1172       C  0.34273747  0.03857903  0.28342414    -0.05570
C1173       C  0.32364496  0.05481350  0.26919966     0.00370
C1174       C  0.29686287  0.04434086  0.26479399    -0.08100
C1175       C  0.27625631  0.05694092  0.24508713     0.62280
H1176       H  0.26711389  0.01511152  0.27853659     0.12970
H1177       H  0.36369210  0.04596737  0.28511514     0.12990
C1178       C  0.35722536  0.99645430  0.30944544     0.62510
F1179       F  0.26605015  0.03675385  0.22791827    -0.22650
F1180       F  0.28785809  0.07697299  0.22858626    -0.19980
F1181       F  0.25458689  0.06813881  0.25988465    -0.19660
F1182       F  0.35885265  0.97211288  0.29511805    -0.19710
F1183       F  0.35200031  0.99124154  0.33674243    -0.20030
F1184       F  0.38289628  0.00873767  0.30782687    -0.22710
C1185       C  0.30882137  0.27845666  0.04660923    -0.05540
C1186       C  0.28911759  0.26405737  0.03095186     0.00380
C1187       C  0.28777098  0.23498352  0.03402888    -0.08190
C1188       C  0.30286548  0.22271886  0.05545848    -0.05570
C1189       C  0.31891414  0.23818611  0.07358419     0.00370
C1190       C  0.32285992  0.26633161  0.06863278    -0.08100
C1191       C  0.34027800  0.28382795  0.08771911     0.62280
H1192       H  0.31147620  0.30012170  0.04291578     0.12970
H1193       H  0.30076608  0.20091432  0.05918838     0.12990
C1194       C  0.27139397  0.21536514  0.01629175     0.62510
F1195       F  0.34133374  0.31087289  0.07922203    -0.22650
F1196       F  0.36691151  0.27381343  0.08835952    -0.19980
F1197       F  0.32929743  0.28329365  0.11406239    -0.19660
F1198       F  0.28942815  0.19756782  0.00328751    -0.19710
F1199       F  0.25606787  0.22806784  0.99639805    -0.20030
F1200       F  0.25367550  0.20027657  0.03274507    -0.22710
C1201       C  0.26474932  0.32806802  0.03885195    -0.05540
C1202       C  0.25409378  0.30136999  0.03593314     0.00380
C1203       C  0.23566796  0.29145028  0.05655365    -0.08190
C1204       C  0.22996597  0.30776682  0.07955852    -0.05570
C1205       C  0.24297577  0.33296200  0.08402059     0.00370
C1206       C  0.26028118  0.34376176  0.06301264    -0.08100
C1207       C  0.27568914  0.37053385  0.06680279     0.62280
H1208       H  0.27903794  0.33534940  0.02332648     0.12970
H1209       H  0.21624156  0.29981029  0.09534835     0.12990
C1210       C  0.22222863  0.26339049  0.05655098     0.62510
F1211       F  0.29475173  0.37487203  0.04595740    -0.22650
F1212       F  0.28971528  0.37028779  0.09155942    -0.19980
F1213       F  0.25738080  0.39217504  0.06655805    -0.19660
F1214       F  0.22533352  0.24967975  0.03205023    -0.19710
F1215       F  0.19421741  0.26616636  0.06128634    -0.20030
F1216       F  0.23345942  0.24768653  0.07740035    -0.22710
C1217       C  0.99842726  0.30561161  0.72833882    -0.05540
C1218       C  0.99803187  0.31532422  0.70099898     0.00380
C1219       C  0.01771095  0.33593706  0.69365342    -0.08190
C1220       C  0.03807649  0.34349132  0.71268906    -0.05570
C1221       C  0.03927110  0.33231244  0.73911637     0.00370
C1222       C  0.01857203  0.31364716  0.74750219    -0.08100
C1223       C  0.01726268  0.30083029  0.77597079     0.62280
H1224       H  0.98318615  0.29106360  0.73503100     0.12970
H1225       H  0.05392131  0.35793226  0.70647155     0.12990
C1226       C  0.01832202  0.35185579  0.66691499     0.62510
F1227       F  0.99083293  0.30339097  0.78646181    -0.22650
F1228       F  0.03503873  0.31295328  0.79451409    -0.19980
F1229       F  0.02368453  0.27330505  0.77392960    -0.19660
F1230       F  0.01942716  0.37962092  0.67260309    -0.19710
F1231       F  0.99545342  0.34766895  0.65112629    -0.20030
F1232       F  0.04154419  0.34472900  0.65197735    -0.22710
C1233       C  0.03130689  0.24650931  0.66150832    -0.05540
C1234       C  0.04511663  0.26023853  0.64032570     0.00380
C1235       C  0.03216400  0.28264128  0.62725746    -0.08190
C1236       C  0.00641199  0.29154714  0.63738120    -0.05570
C1237       C  0.99477812  0.28085046  0.66168299     0.00370
C1238       C  0.00607175  0.25599973  0.67214799    -0.08100
C1239       C  0.99000779  0.23675627  0.69074454     0.62280
H1240       H  0.04058991  0.22802480  0.66961476     0.12970
H1241       H  0.99621996  0.30815347  0.62717357     0.12990
C1242       C  0.04636301  0.29847271  0.60428730     0.62510
F1243       F  0.97012305  0.22378486  0.67518504    -0.22650
F1244       F  0.97767682  0.25034940  0.71224932    -0.19980
F1245       F  0.00672681  0.21672114  0.70200599    -0.19660
F1246       F  0.04867432  0.28237675  0.58100635    -0.19710
F1247       F  0.07237280  0.30641614  0.61270872    -0.20030
F1248       F  0.03187505  0.32183860  0.59719352    -0.22710
C1249       C  0.22543457  0.33285702  0.94293514    -0.05540
C1250       C  0.24687326  0.34190933  0.92593243     0.00380
C1251       C  0.27411881  0.34074897  0.93567105    -0.08190
C1252       C  0.27940139  0.32638610  0.96025114    -0.05570
C1253       C  0.25850100  0.31171500  0.97423297     0.00370
C1254       C  0.23051741  0.31742291  0.96689497    -0.08100
C1255       C  0.20498822  0.30751186  0.98192145     0.62280
H1256       H  0.20440890  0.33546238  0.93587458     0.12970
H1257       H  0.30055543  0.32338289  0.96664859     0.12990
C1258       C  0.29744763  0.35353843  0.91934437     0.62510
F1259       F  0.19147854  0.32978294  0.99325835    -0.22650
F1260       F  0.21067957  0.28940790  0.00255965    -0.19980
F1261       F  0.18733437  0.29469397  0.96365021    -0.19660
F1262       F  0.29186495  0.38099372  0.91513362    -0.19710
F1263       F  0.30005792  0.34063277  0.89410420    -0.20030
F1264       F  0.32234510  0.35149336  0.93301232    -0.22710
C1265       C  0.28874527  0.25279966  0.92125818    -0.05540
C1266       C  0.31523705  0.24173804  0.92548062     0.00380
C1267       C  0.32742745  0.24599155  0.95186159    -0.08190
C1268       C  0.31236687  0.26108182  0.97196674    -0.05570
C1269       C  0.28410134  0.26720716  0.96856181     0.00370
C1270       C  0.27182777  0.25991531  0.94324884    -0.08100
C1271       C  0.24112962  0.25597537  0.93897796     0.62280
H1272       H  0.27933096  0.25208289  0.90105517     0.12970
H1273       H  0.32280274  0.26806445  0.99026207     0.12990
C1274       C  0.35587458  0.23558397  0.95921343     0.62510
F1275       F  0.23092336  0.27588478  0.92168325    -0.22650
F1276       F  0.22663236  0.25621385  0.96337910    -0.19980
F1277       F  0.23658065  0.23068365  0.92691835    -0.19660
F1278       F  0.37565082  0.25172178  0.94666905    -0.19710
F1279       F  0.35893699  0.20862382  0.95103674    -0.20030
F1280       F  0.36025134  0.23660543  0.98738333    -0.22710
C1281       C  0.32485542  0.01497772  0.68844308    -0.05540
C1282       C  0.30018478  0.00633592  0.70108372     0.00380
C1283       C  0.29166737  0.01983798  0.72565572    -0.08190
C1284       C  0.30583839  0.04327705  0.73423038    -0.05570
C1285       C  0.32830905  0.05384025  0.71951903     0.00370
C1286       C  0.33900264  0.03875649  0.69694653    -0.08100
C1287       C  0.36413012  0.04831504  0.68088023     0.62280
H1288       H  0.33213456  0.00390932  0.67061267     0.12970
H1289       H  0.29832166  0.05442488  0.75209865     0.12990
C1290       C  0.26756534  0.01136065  0.74345553     0.62510
F1291       F  0.36855721  0.03266178  0.65748731    -0.22650
F1292       F  0.38731742  0.04615205  0.69714233    -0.19980
F1293       F  0.36077338  0.07522546  0.67269047    -0.19660
F1294       F  0.27565527  0.01030352  0.77075356    -0.19710
F1295       F  0.25790544  0.98597172  0.73663883    -0.20030
F1296       F  0.24653585  0.03031060  0.74093217    -0.22710
C1297       C  0.23576519  0.01187111  0.67929377    -0.05540
C1298       C  0.26121978  0.00577612  0.66688031     0.00380
C1299       C  0.26830420  0.01913161  0.64179625    -0.08190
C1300       C  0.25123347  0.04027808  0.63217493    -0.05570
C1301       C  0.22646902  0.04694901  0.64551611     0.00370
C1302       C  0.21747438  0.03085461  0.66800059    -0.08100
C1303       C  0.18913547  0.03332965  0.68109689     0.62280
H1304       H  0.22975880  0.00133055  0.69796134     0.12970
H1305       H  0.25791392  0.05244740  0.61469157     0.12990
C1306       C  0.29369731  0.01281922  0.62481583     0.62510
F1307       F  0.17750419  0.00756313  0.68334624    -0.22650
F1308       F  0.17134094  0.04929245  0.66575252    -0.19980
F1309       F  0.19157102  0.04447442  0.70716570    -0.19660
F1310       F  0.28659188  0.01072687  0.59730487    -0.19710
F1311       F  0.30566918  0.98844089  0.63222581    -0.20030
F1312       F  0.31263472  0.03376103  0.62773349    -0.22710
C1313       C  0.26290502  0.89993523  0.63948690    -0.05540
C1314       C  0.23424354  0.90064820  0.64116181     0.00380
C1315       C  0.22084340  0.92458049  0.65015049    -0.08190
C1316       C  0.23691847  0.94617371  0.66041156    -0.05570
C1317       C  0.26586328  0.94427725  0.66240128     0.00370
C1318       C  0.27903045  0.92180505  0.64885301    -0.08100
C1319       C  0.30973848  0.91928535  0.64364472     0.62280
H1320       H  0.27285252  0.88168291  0.63145212     0.12970
H1321       H  0.22629896  0.96289294  0.66990809     0.12990
C1322       C  0.18962665  0.92639049  0.65047936     0.62510
F1323       F  0.31423422  0.91243965  0.61631355    -0.22650
F1324       F  0.32044852  0.89874614  0.66002467    -0.19980
F1325       F  0.32376229  0.94325525  0.64844880    -0.19660
F1326       F  0.17891642  0.90694853  0.66824748    -0.19710
F1327       F  0.17965545  0.92168952  0.62424699    -0.20030
F1328       F  0.18047172  0.95188367  0.65897723    -0.22710
C1329       C  0.32430617  0.94430263  0.70506486    -0.05540
C1330       C  0.29536913  0.94514820  0.70564359     0.00380
C1331       C  0.28119296  0.92623459  0.72291343    -0.08190
C1332       C  0.29634338  0.90571525  0.73597767    -0.05570
C1333       C  0.32423731  0.90100208  0.72992825     0.00370
C1334       C  0.33907359  0.92158450  0.71528722    -0.08100
C1335       C  0.36958387  0.91928246  0.70835263     0.62280
H1336       H  0.33511199  0.95988141  0.69357347     0.12970
H1337       H  0.28540555  0.89130231  0.74905212     0.12990
C1338       C  0.25023458  0.92509577  0.72779759     0.62510
F1339       F  0.37753699  0.93826242  0.68867717    -0.22650
F1340       F  0.37558638  0.89361569  0.69788510    -0.19980
F1341       F  0.38505999  0.92417896  0.73166681    -0.19660
F1342       F  0.24006020  0.90081979  0.71725774    -0.19710
F1343       F  0.23588030  0.94631368  0.71611143    -0.20030
F1344       F  0.24503511  0.92575794  0.75585169    -0.22710
C1345       C  0.25198267  0.61044764  0.93593066    -0.05540
C1346       C  0.27108096  0.60391830  0.91554108     0.00380
C1347       C  0.29932545  0.60407904  0.92191531    -0.08190
C1348       C  0.30760008  0.61301273  0.94830783    -0.05570
C1349       C  0.28872985  0.62311313  0.96819936     0.00370
C1350       C  0.25981676  0.62037418  0.96200012    -0.08100
C1351       C  0.23641546  0.62707262  0.98171026     0.62280
H1352       H  0.23043140  0.60881904  0.93044786     0.12970
H1353       H  0.32934689  0.61464262  0.95253524     0.12990
C1354       C  0.32048503  0.59573114  0.90047827     0.62510
F1355       F  0.21078748  0.62548593  0.96932941    -0.22650
F1356       F  0.23870379  0.65335496  0.99152598    -0.19980
F1357       F  0.23631347  0.60814087  0.00276577    -0.19660
F1358       F  0.31917204  0.61331237  0.87819028    -0.19710
F1359       F  0.31508165  0.56934159  0.89167333    -0.20030
F1360       F  0.34702102  0.59644596  0.91081553    -0.22710
C1361       C  0.34048010  0.70014352  0.94607353    -0.05540
C1362       C  0.31958667  0.70737213  0.92733752     0.00380
C1363       C  0.29282707  0.69591775  0.93225641    -0.08190
C1364       C  0.28799451  0.68217352  0.95709980    -0.05570
C1365       C  0.30938754  0.67039619  0.97230603     0.00370
C1366       C  0.33673627  0.67931715  0.96596307    -0.08100
C1367       C  0.36256029  0.66715203  0.97818354     0.62280
H1368       H  0.36064069  0.70930901  0.94407150     0.12970
H1369       H  0.26714979  0.67628196  0.96167610     0.12990
C1370       C  0.27034780  0.69233708  0.91065005     0.62510
F1371       F  0.38483092  0.67015524  0.96048174    -0.22650
F1372       F  0.35948430  0.63956525  0.98260306    -0.19980
F1373       F  0.36872382  0.68053828  0.00239071    -0.19660
F1374       F  0.28157404  0.69007526  0.88456790    -0.19710
F1375       F  0.25157960  0.71360475  0.91202414    -0.20030
F1376       F  0.25568333  0.66845321  0.91516248    -0.22710
C1377       C  0.89428705  0.28350978  0.62962032    -0.05540
C1378       C  0.88445759  0.25936322  0.64152441     0.00380
C1379       C  0.89969030  0.24716226  0.66299317    -0.08190
C1380       C  0.92304433  0.26096435  0.67332698    -0.05570
C1381       C  0.93204650  0.28648492  0.66300297     0.00370
C1382       C  0.91774431  0.29725951  0.63972394    -0.08100
C1383       C  0.92386063  0.32489376  0.62732227     0.62280
H1384       H  0.88203682  0.29284679  0.61351808     0.12970
H1385       H  0.93299054  0.25266433  0.69116513     0.12990
C1386       C  0.89089907  0.21995911  0.67535446     0.62510
F1387       F  0.91544875  0.32612494  0.60011360    -0.22650
F1388       F  0.95167372  0.33009018  0.62753221    -0.19980
F1389       F  0.90968748  0.34469358  0.64196560    -0.19660
F1390       F  0.88755621  0.20090665  0.65454332    -0.19710
F1391       F  0.86630181  0.22284842  0.68948818    -0.20030
F1392       F  0.91031862  0.20991684  0.69356754    -0.22710
C1393       C  0.90602397  0.35136353  0.72275196    -0.05540
C1394       C  0.89478276  0.33277166  0.74176735     0.00380
C1395       C  0.90838804  0.30742276  0.74583273    -0.08190
C1396       C  0.92811295  0.29919401  0.72639989    -0.05570
C1397       C  0.93734189  0.31670060  0.70529335     0.00370
C1398       C  0.92895062  0.34457783  0.70635655    -0.08100
C1399       C  0.94583400  0.36783022  0.69434274     0.62280
H1400       H  0.89678103  0.37138710  0.72063605     0.12970
H1401       H  0.93640341  0.27874565  0.72795690     0.12990
C1402       C  0.90299501  0.28838093  0.76999241     0.62510
F1403       F  0.94994625  0.36464914  0.66663853    -0.22650
F1404       F  0.97093514  0.36874005  0.70752808    -0.19980
F1405       F  0.93327888  0.39301176  0.69826329    -0.19660
F1406       F  0.88946407  0.26518823  0.76086041    -0.19710
F1407       F  0.88762386  0.30062250  0.79064836    -0.20030
F1408       F  0.92786708  0.28059258  0.78144779    -0.22710
C1409       C  0.62837842  0.23013437  0.94516949    -0.05540
C1410       C  0.60706359  0.24336189  0.93110596     0.00380
C1411       C  0.59969820  0.27025886  0.93874494    -0.08190
C1412       C  0.61583283  0.28391352  0.95846370    -0.05570
C1413       C  0.63961759  0.27203711  0.97004082     0.00370
C1414       C  0.64582346  0.24428953  0.96326883    -0.08100
C1415       C  0.67143772  0.22895209  0.97190752     0.62280
H1416       H  0.63374789  0.20943263  0.93901693     0.12970
H1417       H  0.61086614  0.30480520  0.96349847     0.12990
C1418       C  0.57581420  0.28492930  0.92503782     0.62510
F1419       F  0.66420701  0.20808100  0.98976613    -0.22650
F1420       F  0.69033678  0.24545913  0.98441841    -0.19980
F1421       F  0.68417545  0.21771895  0.94895247    -0.19660
F1422       F  0.55179651  0.27033517  0.92943894    -0.19710
F1423       F  0.58057337  0.28715466  0.89700879    -0.20030
F1424       F  0.57202300  0.31103906  0.93551227    -0.22710
C1425       C  0.67058785  0.35280625  0.93954586    -0.05540
C1426       C  0.68942019  0.34114526  0.92088275     0.00380
C1427       C  0.70249621  0.31621420  0.92788223    -0.08190
C1428       C  0.69255040  0.30143106  0.95042901    -0.05570
C1429       C  0.67231643  0.31183370  0.96835835     0.00370
C1430       C  0.66212799  0.33879369  0.96369628    -0.08100
C1431       C  0.64384507  0.35378142  0.98422892     0.62280
H1432       H  0.66190690  0.37263718  0.93463346     0.12970
H1433       H  0.70054373  0.28106248  0.95358701     0.12990
C1434       C  0.72635750  0.30379188  0.91177027     0.62510
F1435       F  0.62931810  0.37466089  0.97158474    -0.22650
F1436       F  0.66026572  0.36521406  0.00437865    -0.19980
F1437       F  0.62488512  0.33665036  0.99656850    -0.19660
F1438       F  0.73881228  0.32229793  0.89412536    -0.19710
F1439       F  0.71701464  0.28162194  0.89673216    -0.20030
F1440       F  0.74634636  0.29483251  0.92993341    -0.22710
C1441       C  0.01454246  0.62777038  0.69859647    -0.05540
C1442       C  0.99769134  0.64834699  0.71037019     0.00380
C1443       C  0.00054723  0.65316821  0.73931202    -0.08190
C1444       C  0.02161732  0.63959273  0.75386010    -0.05570
C1445       C  0.03986206  0.62134811  0.74105667     0.00370
C1446       C  0.03563939  0.61441904  0.71315501    -0.08100
C1447       C  0.05439286  0.59430478  0.69818040     0.62280
H1448       H  0.01258232  0.62328041  0.67704219     0.12970
H1449       H  0.02495214  0.64455323  0.77539044     0.12990
C1450       C  0.98335805  0.67261690  0.75652669     0.62510
F1451       F  0.04795321  0.59209098  0.67049851    -0.22650
F1452       F  0.05171437  0.56860704  0.70976543    -0.19980
F1453       F  0.08152962  0.60273405  0.70004792    -0.19660
F1454       F  0.97127392  0.65828092  0.77798328    -0.19710
F1455       F  0.96275705  0.68501159  0.74201982    -0.20030
F1456       F  0.00014140  0.69274946  0.76746968    -0.22710
C1457       C  0.01088078  0.66738224  0.64708368    -0.05540
C1458       C  0.00322219  0.68202601  0.67098430     0.00380
C1459       C  0.01946158  0.70517956  0.67846375    -0.08190
C1460       C  0.04305571  0.71134607  0.66292338    -0.05570
C1461       C  0.05228320  0.69444781  0.64153730     0.00370
C1462       C  0.03581589  0.67226338  0.63301417    -0.08100
C1463       C  0.04566061  0.65241209  0.61096781     0.62280
H1464       H  0.99902187  0.64967007  0.64152466     0.12970
H1465       H  0.05577004  0.72860817  0.66896146     0.12990
C1466       C  0.01430819  0.72402022  0.70265314     0.62510
F1467       F  0.02766477  0.63067884  0.60764303    -0.22650
F1468       F  0.07108860  0.64184347  0.61818113    -0.19980
F1469       F  0.04792853  0.66574784  0.58597240    -0.19660
F1470       F  0.03651537  0.72292948  0.72041178    -0.19710
F1471       F  0.99115072  0.71754712  0.71720452    -0.20030
F1472       F  0.01140005  0.75058993  0.69318785    -0.22710
C1473       C  0.69949398  0.00923426  0.66225961    -0.05540
C1474       C  0.67081998  0.00750427  0.66597325     0.00380
C1475       C  0.65432572  0.02702794  0.65188898    -0.08190
C1476       C  0.66674377  0.05090229  0.64116300    -0.05570
C1477       C  0.69539567  0.05450477  0.64180218     0.00370
C1478       C  0.71219508  0.03262731  0.65084319    -0.08100
C1479       C  0.74342289  0.03514424  0.65079853     0.62280
H1480       H  0.71224186  0.99395527  0.67122985     0.12970
H1481       H  0.65396808  0.06715330  0.63295523     0.12990
C1482       C  0.62357365  0.02328010  0.64858805     0.62510
F1483       F  0.75602727  0.01208770  0.66151105    -0.22650
F1484       F  0.75134201  0.05738563  0.66655304    -0.19980
F1485       F  0.75282298  0.03867794  0.62411616    -0.19660
F1486       F  0.60963244  0.03698473  0.66923660    -0.19710
F1487       F  0.61667097  0.99580698  0.64930397    -0.20030
F1488       F  0.61513478  0.03366977  0.62345702    -0.22710
C1489       C  0.61939581  0.01032352  0.72117655    -0.05540
C1490       C  0.64720093  0.01193854  0.71257788     0.00380
C1491       C  0.66132226  0.03633485  0.71935699    -0.08190
C1492       C  0.64603330  0.05988206  0.72491559    -0.05570
C1493       C  0.61807541  0.05906619  0.73340368     0.00370
C1494       C  0.60593033  0.03243676  0.73466058    -0.08100
C1495       C  0.58042732  0.02570668  0.75133908     0.62280
H1496       H  0.60754094  0.99222803  0.71727251     0.12970
H1497       H  0.65726746  0.07877807  0.72289475     0.12990
C1498       C  0.69227257  0.03869508  0.72280521     0.62510
F1499       F  0.58280913  0.99980056  0.76271404    -0.22650
F1500       F  0.55745949  0.02608069  0.73460733    -0.19980
F1501       F  0.57719853  0.04375399  0.77301234    -0.19660
F1502       F  0.70289046  0.05751846  0.70449536    -0.19710
F1503       F  0.70572407  0.01417897  0.71934288    -0.20030
F1504       F  0.69776767  0.04774829  0.74924182    -0.22710
C1505       C  0.62637671  0.66701584  0.04591203    -0.05540
C1506       C  0.64334876  0.68651870  0.03279047     0.00380
C1507       C  0.64039884  0.71452051  0.04034787    -0.08190
C1508       C  0.62441902  0.72089225  0.06375755    -0.05570
C1509       C  0.61178221  0.70037657  0.07954110     0.00370
C1510       C  0.61140027  0.67324435  0.06983480    -0.08100
C1511       C  0.59649066  0.65081347  0.08559907     0.62280
H1512       H  0.62655752  0.64617185  0.03858023     0.12970
H1513       H  0.62327665  0.74191718  0.07087387     0.12990
C1514       C  0.65305440  0.73843685  0.02495771     0.62510
F1515       F  0.59830051  0.62576278  0.07234612    -0.22650
F1516       F  0.56892131  0.65751372  0.08825566    -0.19980
F1517       F  0.60786451  0.64799093  0.11153300    -0.19660
F1518       F  0.63227033  0.75299227  0.01218156    -0.19710
F1519       F  0.67181735  0.73047727  0.00526443    -0.20030
F1520       F  0.66636697  0.75569386  0.04319463    -0.22710
C1521       C  0.72493876  0.65126873  0.06274828    -0.05540
C1522       C  0.71430408  0.62616539  0.07186434     0.00380
C1523       C  0.69177488  0.61438847  0.05755616    -0.08190
C1524       C  0.67938937  0.62977314  0.03638137    -0.05570
C1525       C  0.68626617  0.65743007  0.03193650     0.00370
C1526       C  0.70993456  0.66826196  0.04511715    -0.08100
C1527       C  0.71803621  0.69817620  0.04345802     0.62280
H1528       H  0.74293275  0.65928050  0.07314989     0.12970
H1529       H  0.66261384  0.62105923  0.02470769     0.12990
C1530       C  0.67977540  0.58667583  0.06516723     0.62510
F1531       F  0.74300081  0.70336609  0.05616445    -0.22650
F1532       F  0.69829082  0.71372199  0.05660531    -0.19980
F1533       F  0.72056486  0.70630639  0.01649527    -0.19660
F1534       F  0.67360542  0.58579252  0.09299980    -0.19710
F1535       F  0.69844080  0.56627619  0.05870838    -0.20030
F1536       F  0.65571970  0.58127258  0.05090995    -0.22710
C1537       C  0.63744068  0.91859438  0.75435917    -0.05540
C1538       C  0.61224121  0.90854197  0.74427050     0.00380
C1539       C  0.59952075  0.92344290  0.72265824    -0.08190
C1540       C  0.61559697  0.94251245  0.70770915    -0.05570
C1541       C  0.64263199  0.94971249  0.71545584     0.00370
C1542       C  0.65245905  0.93934983  0.74095552    -0.08100
C1543       C  0.67919681  0.94801882  0.75406841     0.62280
H1544       H  0.64640813  0.90872384  0.77221958     0.12970
H1545       H  0.60697145  0.95223851  0.68969675     0.12990
C1546       C  0.56915681  0.92068975  0.71606671     0.62510
F1547       F  0.67738827  0.94635530  0.78250079    -0.22650
F1548       F  0.68530690  0.97479596  0.74773235    -0.19980
F1549       F  0.70005711  0.93079061  0.74546373    -0.19660
F1550       F  0.55388870  0.92758640  0.73918876    -0.19710
F1551       F  0.56309051  0.89427773  0.70792409    -0.20030
F1552       F  0.56121308  0.93827221  0.69517178    -0.22710
C1553       C  0.70467089  0.91164823  0.65490784    -0.05540
C1554       C  0.68426177  0.89845933  0.63969933     0.00380
C1555       C  0.65783662  0.91037624  0.63811492    -0.08190
C1556       C  0.65240922  0.93451170  0.65330180    -0.05570
C1557       C  0.67168215  0.94568332  0.67196273     0.00370
C1558       C  0.69891989  0.93434199  0.67181250    -0.08100
C1559       C  0.72311414  0.94394670  0.68888021     0.62280
H1560       H  0.72507566  0.90253782  0.65539265     0.12970
H1561       H  0.63218705  0.94361116  0.65216013     0.12990
C1562       C  0.63521495  0.89675767  0.62160768     0.62510
F1563       F  0.73382348  0.92215483  0.70358003    -0.22650
F1564       F  0.71635114  0.96422816  0.70720133    -0.19980
F1565       F  0.74350702  0.95365133  0.67141670    -0.19660
F1566       F  0.63012829  0.87087439  0.63201480    -0.19710
F1567       F  0.64333725  0.89454691  0.59435880    -0.20030
F1568       F  0.61085771  0.91150604  0.62259970    -0.22710
C1569       C  0.90687120  0.70102934  0.63259453    -0.05540
C1570       C  0.90156035  0.72539509  0.64682258     0.00380
C1571       C  0.91881466  0.73275879  0.66900557    -0.08190
C1572       C  0.93857172  0.71386898  0.67820315    -0.05570
C1573       C  0.94194676  0.68782539  0.66619992     0.00370
C1574       C  0.92650016  0.68187089  0.64192080    -0.08100
C1575       C  0.92879797  0.65498737  0.62650455     0.62280
H1576       H  0.89345696  0.69585530  0.61558473     0.12970
H1577       H  0.94918389  0.71857255  0.69698767     0.12990
C1578       C  0.91610743  0.75947382  0.68476814     0.62510
F1579       F  0.91503162  0.65571241  0.60156904    -0.22650
F1580       F  0.91733564  0.63427973  0.64198572    -0.19980
F1581       F  0.95596241  0.64923156  0.62073704    -0.19660
F1582       F  0.90570843  0.75418274  0.71080616    -0.19710
F1583       F  0.89912676  0.77815650  0.67179000    -0.20030
F1584       F  0.94182482  0.77140770  0.68734471    -0.22710
C1585       C  0.90845049  0.60796683  0.70934234    -0.05540
C1586       C  0.88954982  0.62333400  0.72487374     0.00380
C1587       C  0.89624343  0.65062055  0.73178787    -0.08190
C1588       C  0.91753949  0.66342296  0.71745888    -0.05570
C1589       C  0.93577337  0.64900178  0.70012477     0.00370
C1590       C  0.93186833  0.62016103  0.69709561    -0.08100
C1591       C  0.95007848  0.60148266  0.67993966     0.62280
H1592       H  0.90390286  0.58663906  0.70519401     0.12970
H1593       H  0.91985064  0.68524772  0.72025940     0.12990
C1594       C  0.88180806  0.66709096  0.75418176     0.62510
F1595       F  0.93404916  0.58435019  0.66387706    -0.22650
F1596       F  0.96590011  0.58556351  0.69732292    -0.19980
F1597       F  0.96713353  0.61564160  0.66238077    -0.19660
F1598       F  0.86497878  0.65113102  0.77070409    -0.19710
F1599       F  0.86631835  0.68771558  0.74233668    -0.20030
F1600       F  0.90138722  0.67888153  0.77111693    -0.22710
C1601       C  0.68024845  0.62049316  0.93300756    -0.05540
C1602       C  0.70851655  0.62471280  0.92971579     0.00380
C1603       C  0.72362554  0.63827260  0.95038502    -0.08190
C1604       C  0.70905853  0.65106510  0.97186954    -0.05570
C1605       C  0.68009789  0.65058473  0.97269869     0.00370
C1606       C  0.66591767  0.63218629  0.95510409    -0.08100
C1607       C  0.63591721  0.62437277  0.95868446     0.62280
H1608       H  0.66912469  0.60875615  0.91767161     0.12970
H1609       H  0.72010709  0.66345290  0.98655066     0.12990
C1610       C  0.75477356  0.64003555  0.94891126     0.62510
F1611       F  0.63318149  0.59626775  0.95626895    -0.22650
F1612       F  0.62033713  0.63672385  0.93838860    -0.19980
F1613       F  0.62579522  0.63158348  0.98430696    -0.19660
F1614       F  0.76268623  0.65528546  0.92623337    -0.19710
F1615       F  0.76567034  0.61394886  0.94663239    -0.20030
F1616       F  0.76569126  0.65216691  0.97222400    -0.22710
C1617       C  0.64262913  0.71567209  0.92695557    -0.05540
C1618       C  0.61457872  0.70897648  0.92527617     0.00380
C1619       C  0.60171157  0.69790130  0.94939509    -0.08190
C1620       C  0.61870252  0.68925857  0.97144203    -0.05570
C1621       C  0.64757992  0.69108461  0.97010533     0.00370
C1622       C  0.65947103  0.70649100  0.94824339    -0.08100
C1623       C  0.68984499  0.71311306  0.94502726     0.62280
H1624       H  0.65217778  0.72701607  0.91024589     0.12970
H1625       H  0.60958515  0.67920344  0.98906333     0.12990
C1626       C  0.57072242  0.69510500  0.95271940     0.62510
F1627       F  0.69302041  0.74068649  0.93924398    -0.22650
F1628       F  0.70066583  0.69807082  0.92341190    -0.19980
F1629       F  0.70480230  0.70777850  0.96826098    -0.19660
F1630       F  0.55960716  0.68116242  0.93061704    -0.19710
F1631       F  0.55910191  0.72087534  0.95496860    -0.20030
F1632       F  0.56366321  0.68088691  0.97640066    -0.22710
C1633       C  0.51717661  0.78983235  0.77473695    -0.05540
C1634       C  0.49911159  0.80123671  0.79430491     0.00380
C1635       C  0.50331893  0.82920717  0.80198777    -0.08190
C1636       C  0.52585925  0.84376629  0.79049505    -0.05570
C1637       C  0.54426775  0.83151305  0.77184380     0.00370
C1638       C  0.53788520  0.80501969  0.76169866    -0.08100
C1639       C  0.55251943  0.79154307  0.73746896     0.62280
H1640       H  0.51541928  0.76842569  0.76946439     0.12970
H1641       H  0.53036723  0.86422368  0.79788055     0.12990
C1642       C  0.48651085  0.84448824  0.82343826     0.62510
F1643       F  0.53309664  0.78142558  0.71930334    -0.22650
F1644       F  0.56843784  0.76995663  0.74676570    -0.19980
F1645       F  0.56902159  0.80960473  0.72294497    -0.19660
F1646       F  0.46821364  0.82809666  0.83747590    -0.19710
F1647       F  0.47197697  0.86522048  0.81063356    -0.20030
F1648       F  0.50398886  0.85597927  0.84271418    -0.22710
C1649       C  0.50958249  0.77810365  0.85049299    -0.05540
C1650       C  0.49547933  0.76369883  0.82973317     0.00380
C1651       C  0.50162494  0.73539771  0.82575261    -0.08190
C1652       C  0.52303958  0.72375199  0.84122995    -0.05570
C1653       C  0.53933201  0.73942900  0.85895275     0.00370
C1654       C  0.53209453  0.76685446  0.86452575    -0.08100
C1655       C  0.54918699  0.78484669  0.88348046     0.62280
H1656       H  0.50451918  0.79929465  0.85394511     0.12970
H1657       H  0.52898291  0.70261790  0.83791475     0.12990
C1658       C  0.48711792  0.71727192  0.80492404     0.62510
F1659       F  0.53993817  0.81166977  0.88374070    -0.22650
F1660       F  0.57639815  0.78504920  0.87487363    -0.19980
F1661       F  0.54766871  0.77501592  0.91012339    -0.19660
F1662       F  0.48713265  0.72930019  0.77931174    -0.19710
F1663       F  0.46050338  0.71241448  0.81351441    -0.20030
F1664       F  0.49983106  0.69202466  0.80208637    -0.22710
C1665       C  0.43271365  0.76830497  0.85166717    -0.05540
C1666       C  0.43389556  0.76227054  0.82322816     0.00380
C1667       C  0.41258516  0.74564980  0.81192390    -0.08190
C1668       C  0.39048877  0.73758563  0.82869147    -0.05570
C1669       C  0.38772603  0.74631356  0.85602706     0.00370
C1670       C  0.40955125  0.76137438  0.86810697    -0.08100
C1671       C  0.40741902  0.77205186  0.89740327     0.62280
H1672       H  0.44861874  0.78124557  0.86020550     0.12970
H1673       H  0.37387043  0.72580469  0.81962841     0.12990
C1674       C  0.41099421  0.73678558  0.78207580     0.62510
F1675       F  0.42981620  0.78814920  0.90437673    -0.22650
F1676       F  0.40633724  0.75036144  0.91563241    -0.19980
F1677       F  0.38387518  0.78778531  0.90031426    -0.19660
F1678       F  0.40324539  0.70954065  0.78054784    -0.19710
F1679       F  0.43579512  0.73904374  0.76874307    -0.20030
F1680       F  0.39159144  0.75251804  0.76855974    -0.22710
C1681       C  0.41958248  0.81821107  0.80656654    -0.05540
C1682       C  0.43700559  0.80180596  0.78999958     0.00380
C1683       C  0.43507542  0.80444797  0.76074766    -0.08190
C1684       C  0.41427464  0.82122801  0.74987038    -0.05570
C1685       C  0.39506553  0.83441153  0.76679789     0.00370
C1686       C  0.39854823  0.83433658  0.79551891    -0.08100
C1687       C  0.37905110  0.84989744  0.81443905     0.62280
H1688       H  0.42098507  0.81665452  0.82870516     0.12970
H1689       H  0.41126818  0.82193384  0.72773093     0.12990
C1690       C  0.45228397  0.78945323  0.73944606     0.62510
F1691       F  0.38651839  0.84756540  0.84184823    -0.22650
F1692       F  0.35253421  0.83991938  0.81171617    -0.19980
F1693       F  0.37938654  0.87737131  0.80759991    -0.19660
F1694       F  0.43515301  0.77509263  0.72185805    -0.19710
F1695       F  0.47039894  0.77116825  0.75058813    -0.20030
F1696       F  0.46712520  0.80832460  0.72418889    -0.22710
C1697       C  0.74620822  0.52404322  0.82363003    -0.05540
C1698       C  0.76796116  0.51089994  0.83731934     0.00380
C1699       C  0.77434456  0.51894402  0.86473458    -0.08190
C1700       C  0.76193161  0.54282597  0.87522248    -0.05570
C1701       C  0.74239759  0.55746578  0.85997708     0.00370
C1702       C  0.73229908  0.54629611  0.83512572    -0.08100
C1703       C  0.70761078  0.55742070  0.81958638     0.62280
H1704       H  0.74050549  0.51758413  0.80315074     0.12970
H1705       H  0.76841333  0.55107286  0.89486754     0.12990
C1706       C  0.79385687  0.50295550  0.88305011     0.62510
F1707       F  0.69027942  0.53599448  0.81271815    -0.22650
F1708       F  0.71646660  0.56999809  0.79560603    -0.19980
F1709       F  0.69237044  0.57588268  0.83497191    -0.19660
F1710       F  0.81931380  0.50023853  0.87083387    -0.19710
F1711       F  0.78295857  0.47739351  0.88817929    -0.20030
F1712       F  0.79770262  0.51564572  0.90825773    -0.22710
C1713       C  0.82112259  0.53028314  0.81001698    -0.05540
C1714       C  0.80230730  0.51136365  0.79894477     0.00380
C1715       C  0.79541245  0.51339093  0.77047029    -0.08190
C1716       C  0.80857901  0.53345041  0.75436884    -0.05570
C1717       C  0.82600532  0.55308365  0.76603614     0.00370
C1718       C  0.83285395  0.55133629  0.79423942    -0.08100
C1719       C  0.85117353  0.57249987  0.80806238     0.62280
H1720       H  0.82549077  0.52941780  0.83175594     0.12970
H1721       H  0.80304213  0.53559009  0.73283396     0.12990
C1722       C  0.77292754  0.49729066  0.75603988     0.62510
F1723       F  0.85377669  0.56777172  0.83605966    -0.22650
F1724       F  0.84018662  0.59841545  0.80468144    -0.19980
F1725       F  0.87724920  0.57166293  0.79656318    -0.19660
F1726       F  0.75552086  0.51520883  0.74246350    -0.19710
F1727       F  0.75683470  0.48211313  0.77365318    -0.20030
F1728       F  0.78481800  0.47995507  0.73684855    -0.22710
C1729       C  0.78750121  0.43227156  0.78358061    -0.05540
C1730       C  0.80388343  0.44957429  0.79987135     0.00380
C1731       C  0.83289453  0.44504968  0.80002613    -0.08190
C1732       C  0.84276120  0.41961396  0.79042978    -0.05570
C1733       C  0.82537544  0.40112791  0.77679394     0.00370
C1734       C  0.79850370  0.40984744  0.76966764    -0.08100
C1735       C  0.78064999  0.39641287  0.74784428     0.62280
H1736       H  0.76550322  0.43561523  0.78227189     0.12970
H1737       H  0.86403422  0.41397857  0.79379726     0.12990
C1738       C  0.85377176  0.46700534  0.80726779     0.62510
F1739       F  0.77002114  0.41642317  0.73071091    -0.22650
F1740       F  0.75895037  0.38275748  0.76027699    -0.19980
F1741       F  0.79530359  0.37837658  0.73140112    -0.19660
F1742       F  0.84733135  0.47993109  0.83157430    -0.19710
F1743       F  0.85451303  0.48606279  0.78625439    -0.20030
F1744       F  0.88005286  0.45630353  0.80991974    -0.22710
C1745       C  0.74017100  0.45359733  0.83348410    -0.05540
C1746       C  0.76861452  0.45014722  0.83832572     0.00380
C1747       C  0.77721989  0.42757093  0.85479572    -0.08190
C1748       C  0.75758897  0.40839649  0.86356970    -0.05570
C1749       C  0.72966763  0.41129922  0.85740045     0.00370
C1750       C  0.72049433  0.43467696  0.84305570    -0.08100
C1751       C  0.69012789  0.43902410  0.83719885     0.62280
H1752       H  0.73347829  0.46998433  0.82020799     0.12970
H1753       H  0.76430792  0.39019636  0.87447043     0.12990
C1754       C  0.80674454  0.42196210  0.86302011     0.62510
F1755       F  0.68524383  0.46420412  0.82504982    -0.22650
F1756       F  0.67540595  0.43793498  0.86163787    -0.19980
F1757       F  0.68061535  0.41886520  0.81965172    -0.19660
F1758       F  0.82331221  0.44455377  0.85999011    -0.19710
F1759       F  0.81711842  0.40070547  0.84726606    -0.20030
F1760       F  0.80771900  0.41450447  0.89051567    -0.22710
C1761       C  0.80529382  0.50738285  0.22829834    -0.05540
C1762       C  0.81292263  0.50969814  0.20030787     0.00380
C1763       C  0.82963141  0.53228258  0.19223422    -0.08190
C1764       C  0.83522289  0.55298133  0.21140754    -0.05570
C1765       C  0.82561974  0.55152398  0.23853170     0.00370
C1766       C  0.81146294  0.52796160  0.24761486    -0.08100
C1767       C  0.80211976  0.52517226  0.27734630     0.62280
H1768       H  0.79206955  0.49076546  0.23454341     0.12970
H1769       H  0.84648540  0.57104927  0.20486054     0.12990
C1770       C  0.84127286  0.53619199  0.16353737     0.62510
F1771       F  0.79037543  0.49983607  0.28246020    -0.22650
F1772       F  0.78279891  0.54509046  0.28348128    -0.19980
F1773       F  0.82451885  0.52820765  0.29461792    -0.19660
F1774       F  0.82706048  0.55689729  0.15033798    -0.19710
F1775       F  0.83986310  0.51267986  0.14802556    -0.20030
F1776       F  0.86878771  0.54343905  0.16520781    -0.22710
C1777       C  0.76451689  0.54082505  0.12526103    -0.05540
C1778       C  0.74852011  0.55754893  0.14258028     0.00380
C1779       C  0.74246106  0.54818406  0.16949725    -0.08190
C1780       C  0.75839715  0.52706607  0.18027276    -0.05570
C1781       C  0.77636576  0.51123926  0.16388634     0.00370
C1782       C  0.77757680  0.51699317  0.13506876    -0.08100
C1783       C  0.79254340  0.50009386  0.11356099     0.62280
H1784       H  0.76808174  0.54702363  0.10411683     0.12970
H1785       H  0.75705963  0.52353314  0.20221803     0.12990
C1786       C  0.71968799  0.55969609  0.18775148     0.62510
F1787       F  0.77361892  0.49052487  0.09462145    -0.22650
F1788       F  0.80604557  0.47798266  0.12439073    -0.19980
F1789       F  0.81164151  0.51621794  0.09989050    -0.19660
F1790       F  0.70156039  0.57618741  0.17339206    -0.19710
F1791       F  0.73108638  0.57443112  0.20921847    -0.20030
F1792       F  0.70447836  0.53835117  0.19874868    -0.22710
C1793       C  0.78449289  0.42927478  0.14695936    -0.05540
C1794       C  0.77354404  0.44919980  0.16496829     0.00380
C1795       C  0.74457638  0.44878520  0.17030514    -0.08190
C1796       C  0.72803210  0.42988442  0.15607103    -0.05570
C1797       C  0.73946192  0.40914093  0.13977955     0.00370
C1798       C  0.76812018  0.40891541  0.13475231    -0.08100
C1799       C  0.78153347  0.38622555  0.11797914     0.62280
H1800       H  0.80650524  0.42856448  0.14389842     0.12970
H1801       H  0.70608094  0.42916003  0.16038150     0.12990
C1802       C  0.72978860  0.46504093  0.19251139     0.62510
F1803       F  0.80976133  0.38972297  0.11566160    -0.22650
F1804       F  0.77061614  0.38593340  0.09171940    -0.19980
F1805       F  0.77678089  0.36117229  0.13040972    -0.19660
F1806       F  0.71284012  0.48417226  0.18020372    -0.19710
F1807       F  0.74731348  0.47803929  0.21035113    -0.20030
F1808       F  0.71364672  0.44761298  0.20825689    -0.22710
C1809       C  0.79679325  0.43672779  0.22259063    -0.05540
C1810       C  0.81111908  0.44872897  0.20050992     0.00380
C1811       C  0.83839605  0.43955605  0.19467202    -0.08190
C1812       C  0.84783751  0.41552260  0.20763024    -0.05570
C1813       C  0.83196299  0.40213011  0.22765108     0.00370
C1814       C  0.80760889  0.41482396  0.23749708    -0.08100
C1815       C  0.79185314  0.40561273  0.26296806     0.62280
H1816       H  0.77646921  0.44394835  0.22802138     0.12970
H1817       H  0.86709855  0.40626775  0.20123647     0.12990
C1818       C  0.85777935  0.45472586  0.17547169     0.62510
F1819       F  0.78613899  0.42814559  0.27932888    -0.22650
F1820       F  0.80661525  0.38726553  0.27882819    -0.19980
F1821       F  0.76722282  0.39369743  0.25519316    -0.19660
F1822       F  0.86297407  0.48036310  0.18615735    -0.19710
F1823       F  0.84662314  0.45714089  0.14958720    -0.20030
F1824       F  0.88286766  0.44146998  0.17270731    -0.22710
C1825       C  0.49982653  0.74060406  0.17315218    -0.05540
C1826       C  0.49958779  0.76891471  0.16790224     0.00380
C1827       C  0.51649011  0.77917603  0.14632096    -0.08190
C1828       C  0.53771837  0.76264525  0.13614063    -0.05570
C1829       C  0.54121768  0.73585838  0.14552913     0.00370
C1830       C  0.52106197  0.72385955  0.16277840    -0.08100
C1831       C  0.52273437  0.69393047  0.17090413     0.62280
H1832       H  0.48499559  0.73218006  0.18746265     0.12970
H1833       H  0.55246568  0.77115894  0.12162875     0.12990
C1834       C  0.51298216  0.80703994  0.13312251     0.62510
F1835       F  0.49977108  0.68574562  0.18577955    -0.22650
F1836       F  0.54575427  0.68944433  0.18696605    -0.19980
F1837       F  0.52448636  0.67792598  0.14744437    -0.19660
F1838       F  0.53498517  0.82362403  0.14002201    -0.19710
F1839       F  0.48868775  0.81962865  0.14077610    -0.20030
F1840       F  0.51245431  0.80405215  0.10476891    -0.22710
C1841       C  0.50867714  0.83365620  0.19571406    -0.05540
C1842       C  0.50656881  0.80595684  0.20355775     0.00380
C1843       C  0.52681345  0.79512949  0.22171578    -0.08190
C1844       C  0.54872217  0.81181325  0.22972186    -0.05570
C1845       C  0.55314187  0.83794130  0.21857481     0.00370
C1846       C  0.53241413  0.84946387  0.20153699    -0.08100
C1847       C  0.53576822  0.87724467  0.18791106     0.62280
H1848       H  0.49238851  0.84238286  0.18341693     0.12970
H1849       H  0.56388271  0.80341695  0.24376957     0.12990
C1850       C  0.52732652  0.76629078  0.23343751     0.62510
F1851       F  0.51650003  0.88122826  0.16732536    -0.22650
F1852       F  0.56162901  0.87941624  0.17601454    -0.19980
F1853       F  0.53223923  0.89775785  0.20718546    -0.19660
F1854       F  0.54957654  0.75226960  0.22247387    -0.19710
F1855       F  0.50386095  0.75157350  0.22828381    -0.20030
F1856       F  0.53029858  0.76756243  0.26177225    -0.22710
C1857       C  0.42544654  0.82584409  0.18836933    -0.05540
C1858       C  0.44400422  0.81229428  0.20603798     0.00380
C1859       C  0.44166421  0.81725646  0.23500154    -0.08190
C1860       C  0.41790948  0.83064357  0.24482641    -0.05570
C1861       C  0.39709057  0.83911786  0.22704393     0.00370
C1862       C  0.40120868  0.83798032  0.19835733    -0.08100
C1863       C  0.37917671  0.84772734  0.17853500     0.62280
H1864       H  0.42833911  0.82394145  0.16634979     0.12970
H1865       H  0.41439943  0.83307888  0.26674780     0.12990
C1866       C  0.46324621  0.80912247  0.25595337     0.62510
F1867       F  0.38778647  0.84593650  0.15135911    -0.22650
F1868       F  0.37272121  0.87474974  0.18409187    -0.19980
F1869       F  0.35573120  0.83188620  0.18150922    -0.19660
F1870       F  0.48611058  0.82562604  0.25289374    -0.19710
F1871       F  0.47035796  0.78212027  0.25287230    -0.20030
F1872       F  0.45397241  0.81239931  0.28278078    -0.22710
C1873       C  0.43760790  0.77285139  0.14858065    -0.05540
C1874       C  0.44014796  0.76904751  0.17721173     0.00380
C1875       C  0.42225209  0.75013961  0.19044598    -0.08190
C1876       C  0.40096164  0.73799224  0.17510965    -0.05570
C1877       C  0.39637634  0.74461182  0.14735017     0.00370
C1878       C  0.41579462  0.76133910  0.13339392    -0.08100
C1879       C  0.41275096  0.76846959  0.10308322     0.62280
H1880       H  0.45163172  0.78676604  0.13852345     0.12970
H1881       H  0.38616321  0.72483291  0.18536225     0.12990
C1882       C  0.42426746  0.74366829  0.22089922     0.62510
F1883       F  0.43244444  0.78713614  0.09445935    -0.22650
F1884       F  0.38709311  0.77982229  0.09833305    -0.19980
F1885       F  0.41585026  0.74513615  0.08727844    -0.19660
F1886       F  0.41402198  0.76528266  0.23613671    -0.19710
F1887       F  0.45128636  0.73879465  0.22799030    -0.20030
F1888       F  0.40933069  0.72047545  0.22774603    -0.22710
C1889       C  0.11824381  0.51036325  0.79935017    -0.05540
C1890       C  0.14509442  0.50807269  0.78811951     0.00380
C1891       C  0.15361974  0.52850335  0.76876723    -0.08190
C1892       C  0.13570089  0.54997222  0.76235427    -0.05570
C1893       C  0.11115451  0.55448772  0.77675174     0.00370
C1894       C  0.10157789  0.53387426  0.79500897    -0.08100
C1895       C  0.07501253  0.53738155  0.81120463     0.62280
H1896       H  0.11178552  0.49521041  0.81428634     0.12970
H1897       H  0.14247815  0.56537876  0.74768288     0.12990
C1898       C  0.18169150  0.53101149  0.75520753     0.62510
F1899       F  0.07140764  0.51673386  0.83042252    -0.22650
F1900       F  0.05281337  0.53674095  0.79350318    -0.19980
F1901       F  0.07526813  0.56209842  0.82512690    -0.19660
F1902       F  0.17856718  0.53197900  0.72689048    -0.19710
F1903       F  0.19902324  0.50990448  0.76100209    -0.20030
F1904       F  0.19414392  0.55499403  0.76387927    -0.22710
C1905       C  0.17171402  0.52491031  0.83975690    -0.05540
C1906       C  0.18473054  0.50594562  0.82198367     0.00380
C1907       C  0.21430142  0.50556876  0.82157750    -0.08190
C1908       C  0.22873214  0.52501471  0.83746823    -0.05570
C1909       C  0.21517521  0.54555616  0.85226936     0.00370
C1910       C  0.18621591  0.54470478  0.85467736    -0.08100
C1911       C  0.16941414  0.56490429  0.87161945     0.62280
H1912       H  0.14946801  0.52518959  0.84130094     0.12970
H1913       H  0.25104582  0.52586558  0.83616527     0.12990
C1914       C  0.23257731  0.48714919  0.80422777     0.62510
F1915       F  0.15364274  0.58079617  0.85412802    -0.22650
F1916       F  0.18545787  0.58199626  0.88761748    -0.19980
F1917       F  0.15202117  0.55063428  0.88912318    -0.19660
F1918       F  0.25151894  0.50288181  0.78985310    -0.19710
F1919       F  0.21848942  0.47207002  0.78515964    -0.20030
F1920       F  0.24674345  0.46954837  0.82141786    -0.22710
C1921       C  0.19805557  0.42758897  0.80845852    -0.05540
C1922       C  0.18012937  0.44458315  0.82336919     0.00380
C1923       C  0.17830005  0.44106372  0.85249037    -0.08190
C1924       C  0.19402687  0.42008934  0.86495120    -0.05570
C1925       C  0.21217028  0.40359256  0.84954081     0.00370
C1926       C  0.21639189  0.40985855  0.82134850    -0.08100
C1927       C  0.23977509  0.39836073  0.80388677     0.62280
H1928       H  0.19858779  0.42881190  0.78620994     0.12970
H1929       H  0.19082783  0.41556979  0.88659230     0.12990
C1930       C  0.15912064  0.45702053  0.87132753     0.62510
F1931       F  0.25286851  0.41958290  0.79024120    -0.22650
F1932       F  0.22935737  0.38044478  0.78446108    -0.19980
F1933       F  0.25946355  0.38507816  0.81949817    -0.19660
F1934       F  0.14320691  0.47600386  0.85772567    -0.19710
F1935       F  0.17460638  0.47067028  0.89085496    -0.20030
F1936       F  0.14154999  0.43901808  0.88465227    -0.22710
C1937       C  0.11889199  0.43426646  0.81149504    -0.05540
C1938       C  0.13850549  0.44559252  0.79318705     0.00380
C1939       C  0.14097569  0.43343761  0.76652069    -0.08190
C1940       C  0.12614109  0.40935141  0.76056265    -0.05570
C1941       C  0.10918373  0.39665104  0.78011820     0.00370
C1942       C  0.10463486  0.40973580  0.80566677    -0.08100
C1943       C  0.08605941  0.39681799  0.82724219     0.62280
H1944       H  0.11660339  0.44334657  0.83162910     0.12970
H1945       H  0.12903440  0.39942934  0.74075387     0.12990
C1946       C  0.15944532  0.44382376  0.74366045     0.62510
F1947       F  0.08432477  0.41260714  0.85088220    -0.22650
F1948       F  0.09623055  0.37135431  0.83444676    -0.19980
F1949       F  0.05979166  0.39381379  0.81673387    -0.19660
F1950       F  0.17849850  0.42388543  0.73669036    -0.19710
F1951       F  0.17339172  0.46711209  0.75073362    -0.20030
F1952       F  0.14358206  0.44965171  0.72077483    -0.22710
C1953       C  0.51827364  0.16664749  0.83483319    -0.05540
C1954       C  0.49940965  0.18583908  0.82387858     0.00380
C1955       C  0.50145657  0.21348121  0.83365548    -0.08190
C1956       C  0.52257443  0.22024569  0.85249983    -0.05570
C1957       C  0.54283782  0.20136371  0.86024114     0.00370
C1958       C  0.54005812  0.17383452  0.85212990    -0.08100
C1959       C  0.56053435  0.15147542  0.85955980     0.62280
H1960       H  0.51682156  0.14534596  0.82941616     0.12970
H1961       H  0.52503418  0.24135499  0.85901345     0.12990
C1962       C  0.48396115  0.23742565  0.82436693     0.62510
F1963       F  0.54649364  0.12880354  0.86934849    -0.22650
F1964       F  0.57899967  0.15940388  0.87965935    -0.19980
F1965       F  0.57511907  0.14403587  0.83616536    -0.19660
F1966       F  0.46662149  0.24517820  0.84566434    -0.19710
F1967       F  0.46848932  0.23175845  0.80161787    -0.20030
F1968       F  0.50072001  0.25937907  0.81759039    -0.22710
C1969       C  0.52483252  0.14911390  0.74003453    -0.05540
C1970       C  0.53396139  0.12418655  0.75126216     0.00380
C1971       C  0.51854502  0.11312128  0.77355890    -0.08190
C1972       C  0.49719551  0.12908279  0.78530251    -0.05570
C1973       C  0.49482917  0.15731922  0.77959453     0.00370
C1974       C  0.50908351  0.16747312  0.75596759    -0.08100
C1975       C  0.51109955  0.19725892  0.74746665     0.62280
H1976       H  0.53539840  0.15687952  0.72189805     0.12970
H1977       H  0.48538725  0.12092660  0.80235988     0.12990
C1978       C  0.52598593  0.08600632  0.78671395     0.62510
F1979       F  0.53834256  0.20396981  0.74223146    -0.22650
F1980       F  0.50195049  0.21489779  0.76745436    -0.19980
F1981       F  0.49616166  0.20132521  0.72362421    -0.19660
F1982       F  0.55257117  0.08719087  0.79678441    -0.19710
F1983       F  0.52385138  0.06532565  0.76743408    -0.20030
F1984       F  0.50867305  0.07957125  0.80851687    -0.22710
C1985       C  0.40673353  0.14813456  0.74462674    -0.05540
C1986       C  0.39602271  0.12420859  0.75645080     0.00380
C1987       C  0.40719656  0.11455192  0.78152414    -0.08190
C1988       C  0.42732490  0.13054600  0.79473544    -0.05570
C1989       C  0.43572628  0.15617924  0.78449128     0.00370
C1990       C  0.42551861  0.16489879  0.75850587    -0.08100
C1991       C  0.43131395  0.19221989  0.74499077     0.62280
H1992       H  0.39798187  0.15534998  0.72539373     0.12970
H1993       H  0.43562183  0.12367881  0.81409335     0.12990
C1994       C  0.39713398  0.08835052  0.79508642     0.62510
F1995       F  0.44038241  0.18799332  0.71826581    -0.22650
F1996       F  0.45088328  0.20724962  0.75847217    -0.19980
F1997       F  0.40722607  0.20738029  0.74422323    -0.19660
F1998       F  0.40376537  0.06619607  0.77864544    -0.19710
F1999       F  0.36890250  0.08936462  0.79895988    -0.20030
F2000       F  0.40919161  0.08421098  0.82056178    -0.22710
C2001       C  0.41864502  0.20996405  0.81711651    -0.05540
C2002       C  0.43495922  0.18762698  0.82568174     0.00380
C2003       C  0.42841786  0.17536176  0.85162423    -0.08190
C2004       C  0.40497459  0.18460729  0.86639720    -0.05570
C2005       C  0.38819476  0.20584487  0.85661570     0.00370
C2006       C  0.39644902  0.22014756  0.83272819    -0.08100
C2007       C  0.38145565  0.24581964  0.82339084     0.62280
H2008       H  0.42210568  0.21870680  0.79704758     0.12970
H2009       H  0.39869216  0.17390729  0.88496602     0.12990
C2010       C  0.44388497  0.15157202  0.86434816     0.62510
F2011       F  0.39581489  0.25929209  0.80274452    -0.22650
F2012       F  0.37869846  0.26363780  0.84539870    -0.19980
F2013       F  0.35563266  0.23936969  0.81344390    -0.19660
F2014       F  0.45347577  0.15930960  0.88999528    -0.19710
F2015       F  0.46607490  0.14298132  0.84891433    -0.20030
F2016       F  0.42615858  0.12961331  0.86758862    -0.22710
C2017       C  0.82252010  0.79378255  0.54266878    -0.05540
C2018       C  0.80141250  0.77637401  0.53314662     0.00380
C2019       C  0.79790692  0.75060637  0.54643146    -0.08190
C2020       C  0.81284720  0.74496546  0.57042049    -0.05570
C2021       C  0.83103710  0.76393324  0.58187076     0.00370
C2022       C  0.83673836  0.78846032  0.56748162    -0.08100
C2023       C  0.85623718  0.80960575  0.57931904     0.62280
H2024       H  0.82620267  0.81274139  0.53175303     0.12970
H2025       H  0.80924160  0.72583179  0.58122440     0.12990
C2026       C  0.77890062  0.72804493  0.53687881     0.62510
F2027       F  0.85803165  0.83264657  0.56280261    -0.22650
F2028       F  0.88231469  0.79850025  0.58170839    -0.19980
F2029       F  0.84701433  0.81768343  0.60508115    -0.19660
F2030       F  0.79401323  0.70429789  0.53303934    -0.19710
F2031       F  0.76619782  0.73396661  0.51248027    -0.20030
F2032       F  0.75897634  0.72329355  0.55675516    -0.22710
C2033       C  0.76709460  0.82905109  0.54321001    -0.05540
C2034       C  0.75792659  0.80490206  0.53020771     0.00380
C2035       C  0.73029519  0.79630959  0.53519799    -0.08190
C2036       C  0.71487525  0.80972107  0.55578543    -0.05570
C2037       C  0.72533768  0.83198850  0.57068660     0.00370
C2038       C  0.75154958  0.84256483  0.56362424    -0.08100
C2039       C  0.76385557  0.86696348  0.57862606     0.62280
H2040       H  0.78720392  0.83688575  0.53786697     0.12970
H2041       H  0.69466800  0.80187628  0.56127355     0.12990
C2042       C  0.71571412  0.77326817  0.52038520     0.62510
F2043       F  0.79040948  0.87260474  0.56976145    -0.22650
F2044       F  0.76483125  0.86185109  0.60663825    -0.19980
F2045       F  0.74798114  0.88995418  0.57387140    -0.19660
F2046       F  0.71291283  0.75114328  0.53791985    -0.19710
F2047       F  0.72917049  0.76512608  0.49691266    -0.20030
F2048       F  0.68971850  0.78187316  0.51254369    -0.22710
C2049       C  0.74980312  0.82924611  0.47242891    -0.05540
C2050       C  0.76139858  0.80300971  0.46830642     0.00380
C2051       C  0.75542238  0.78950680  0.44327840    -0.08190
C2052       C  0.74513182  0.80481231  0.42163774    -0.05570
C2053       C  0.73055145  0.82942023  0.42596721     0.00370
C2054       C  0.73209562  0.84142548  0.45273453    -0.08100
C2055       C  0.71603410  0.86667923  0.46123459     0.62280
H2056       H  0.75473211  0.84059370  0.49081638     0.12970
H2057       H  0.74638247  0.79556751  0.40139288     0.12990
C2058       C  0.75687940  0.75881912  0.43841051     0.62510
F2059       F  0.71326762  0.86801108  0.48962989    -0.22650
F2060       F  0.68977024  0.86612345  0.45030481    -0.19980
F2061       F  0.72980238  0.88992751  0.45260342    -0.19660
F2062       F  0.76308936  0.74414940  0.46167771    -0.19710
F2063       F  0.77605690  0.75297567  0.41829688    -0.20030
F2064       F  0.73142856  0.74976964  0.42940314    -0.22710
C2065       C  0.81726303  0.75609924  0.47027062    -0.05540
C2066       C  0.80980189  0.78386449  0.47200403     0.00380
C2067       C  0.82144001  0.80218811  0.45243241    -0.08190
C2068       C  0.83377417  0.79163876  0.42839931    -0.05570
C2069       C  0.83675181  0.76340711  0.42432285     0.00370
C2070       C  0.83001636  0.74533367  0.44630848    -0.08100
C2071       C  0.83382195  0.71459829  0.44341815     0.62280
H2072       H  0.80983495  0.74230283  0.48597812     0.12970
H2073       H  0.84019218  0.80556763  0.41220717     0.12990
C2074       C  0.82014158  0.83300505  0.45562846     0.62510
F2075       F  0.82412135  0.70060100  0.46628278    -0.22650
F2076       F  0.86148264  0.70854768  0.44038661    -0.19980
F2077       F  0.81964527  0.70520085  0.42062148    -0.19660
F2078       F  0.84625044  0.84383305  0.45204314    -0.19710
F2079       F  0.81089962  0.84075353  0.48147989    -0.20030
F2080       F  0.80286994  0.84389494  0.43585680    -0.22710
C2081       C  0.74224204  0.13944907  0.53272135    -0.05540
C2082       C  0.77112674  0.13983809  0.52980745     0.00380
C2083       C  0.78684122  0.12528484  0.54966777    -0.08190
C2084       C  0.77410109  0.11613642  0.57413179    -0.05570
C2085       C  0.74571756  0.11900528  0.57844210     0.00370
C2086       C  0.72924144  0.12961337  0.55686869    -0.08100
C2087       C  0.69823442  0.13233387  0.56018283     0.62280
H2088       H  0.73002755  0.14967817  0.51746821     0.12970
H2089       H  0.78650442  0.10704749  0.59025509     0.12990
C2090       C  0.81726545  0.11987905  0.54599667     0.62510
F2091       F  0.68615427  0.14429206  0.53735429    -0.22650
F2092       F  0.69223411  0.14841479  0.58289506    -0.19980
F2093       F  0.68662765  0.10673595  0.56374083    -0.19660
F2094       F  0.83226009  0.13927530  0.56024446    -0.19710
F2095       F  0.82452337  0.12026748  0.51847027    -0.20030
F2096       F  0.82383819  0.09419638  0.55609022    -0.22710
C2097       C  0.82956809  0.21371690  0.55469737    -0.05540
C2098       C  0.81107713  0.21953519  0.57657903     0.00380
C2099       C  0.78386878  0.20800578  0.57480763    -0.08190
C2100       C  0.77626296  0.19493545  0.55064562    -0.05570
C2101       C  0.79542836  0.18529779  0.53157891     0.00370
C2102       C  0.82298757  0.19499689  0.53342283    -0.08100
C2103       C  0.84637081  0.18643054  0.51455447     0.62280
H2104       H  0.85002613  0.22245419  0.55479573     0.12970
H2105       H  0.75484455  0.18940876  0.54791648     0.12990
C2106       C  0.76350058  0.20394185  0.59856030     0.62510
F2107       F  0.86859650  0.17806225  0.53022371    -0.22650
F2108       F  0.85433676  0.20854256  0.49861545    -0.19980
F2109       F  0.83950204  0.16510217  0.49744426    -0.19660
F2110       F  0.74642024  0.22634496  0.60188453    -0.19710
F2111       F  0.77745411  0.19769112  0.62248305    -0.20030
F2112       F  0.74602854  0.18221836  0.59342613    -0.22710
C2113       C  0.81102408  0.17670574  0.44963238    -0.05540
C2114       C  0.79361246  0.18876468  0.46956788     0.00380
C2115       C  0.79150849  0.21793515  0.47028178    -0.08190
C2116       C  0.80570943  0.23319886  0.45014010    -0.05570
C2117       C  0.82029812  0.22048278  0.42875750     0.00370
C2118       C  0.82375991  0.19183888  0.42877853    -0.08100
C2119       C  0.83955691  0.17709103  0.40601049     0.62280
H2120       H  0.81400324  0.15482012  0.44990602     0.12970
H2121       H  0.80339167  0.25528413  0.44959788     0.12990
C2122       C  0.77381694  0.23438356  0.49010205     0.62510
F2123       F  0.83989089  0.14899774  0.40986930    -0.22650
F2124       F  0.86654713  0.18609550  0.40545137    -0.19980
F2125       F  0.82748082  0.18219887  0.38075919    -0.19660
F2126       F  0.79065202  0.24785014  0.50859703    -0.19710
F2127       F  0.75531104  0.21856689  0.50440698    -0.20030
F2128       F  0.75874024  0.25372172  0.47572707    -0.22710
C2129       C  0.77249437  0.12436068  0.46209812    -0.05540
C2130       C  0.76024522  0.14941199  0.46956470     0.00380
C2131       C  0.73632645  0.15817692  0.45517946    -0.08190
C2132       C  0.72790501  0.14337330  0.43194548    -0.05570
C2133       C  0.74321160  0.12131009  0.42163402     0.00370
C2134       C  0.76532358  0.11074755  0.43748690    -0.08100
C2135       C  0.78279786  0.08683861  0.42760556     0.62280
H2136       H  0.79015474  0.11751044  0.47378059     0.12970
H2137       H  0.71059892  0.15060910  0.41992117     0.12990
C2138       C  0.72090218  0.18437158  0.46199664     0.62510
F2139       F  0.80600501  0.08330137  0.44372389    -0.22650
F2140       F  0.79151949  0.09126980  0.40080492    -0.19980
F2141       F  0.76768487  0.06292167  0.42885336    -0.19660
F2142       F  0.73556982  0.20653109  0.45225012    -0.19550
F2143       F  0.71680363  0.18681681  0.49000621    -0.20030
F2144       F  0.69514525  0.18494260  0.44981156    -0.22710
C2145       C  0.16448449  0.82834417  0.53714284    -0.05540
C2146       C  0.17504273  0.80222355  0.53100792     0.00380
C2147       C  0.19745899  0.79231790  0.54739444    -0.08190
C2148       C  0.20493393  0.80705306  0.57105734    -0.05570
C2149       C  0.19141690  0.83099950  0.57904555     0.00370
C2150       C  0.17156696  0.84264521  0.56134281    -0.08100
C2151       C  0.15640518  0.86885313  0.56883507     0.62280
H2152       H  0.14875257  0.83655886  0.52417354     0.12970
H2153       H  0.22111661  0.79954055  0.58437537     0.12990
C2154       C  0.21498474  0.76743262  0.54014816     0.62510
F2155       F  0.13509808  0.87431939  0.55076389    -0.22650
F2156       F  0.17434610  0.89077199  0.56798753    -0.19980
F2157       F  0.14526348  0.86666288  0.59502572    -0.19660
F2158       F  0.22834412  0.77186697  0.51546997    -0.19710
F2159       F  0.19932483  0.74410715  0.53871321    -0.20030
F2160       F  0.23525263  0.76245798  0.55953842    -0.22710
C2161       C  0.10983404  0.75683695  0.56963454    -0.05540
C2162       C  0.11957929  0.73008660  0.57214441     0.00380
C2163       C  0.13617392  0.71878248  0.55106143    -0.08190
C2164       C  0.14529098  0.73604789  0.52964946    -0.05570
C2165       C  0.13904103  0.76418064  0.52950906     0.00370
C2166       C  0.11815172  0.77363841  0.54781183    -0.08100
C2167       C  0.10275616  0.80029310  0.54447702     0.62280
H2168       H  0.09573172  0.76480218  0.58508760     0.12970
H2169       H  0.15902481  0.72797228  0.51418957     0.12990
C2170       C  0.14462270  0.68889563  0.55167923     0.62510
F2171       F  0.07472654  0.79563082  0.54707452    -0.22650
F2172       F  0.10696661  0.81154795  0.51887785    -0.19980
F2173       F  0.11071410  0.81854751  0.56469404    -0.19660
F2174       F  0.12136362  0.67264062  0.55367529    -0.19710
F2175       F  0.16138288  0.68398939  0.57410289    -0.20030
F2176       F  0.15889919  0.68141678  0.52809275    -0.22710
C2177       C  0.11215746  0.76478891  0.46560602    -0.05540
C2178       C  0.14071410  0.76318458  0.46971367     0.00380
C2179       C  0.15524701  0.74132946  0.45685469    -0.08190
C2180       C  0.14165088  0.72541732  0.43728166    -0.05570
C2181       C  0.11510347  0.73186061  0.42800945     0.00370
C2182       C  0.09921138  0.75088877  0.44360530    -0.08100
C2183       C  0.06948550  0.75770917  0.43684312     0.62280
H2184       H  0.10041952  0.77855444  0.47852220     0.12970
H2185       H  0.15311578  0.70933986  0.42686774     0.12990
C2186       C  0.18506819  0.73386197  0.46186170     0.62510
F2187       F  0.05988566  0.77966687  0.45218389    -0.22650
F2188       F  0.05288958  0.73550482  0.44283402    -0.19980
F2189       F  0.06704815  0.76457046  0.40931785    -0.19660
F2190       F  0.18743160  0.70583471  0.46548503    -0.19710
F2191       F  0.19541228  0.74594939  0.48499453    -0.20030
F2192       F  0.20081359  0.74153925  0.43934214    -0.22710
C2193       C  0.19744700  0.80381529  0.46277193    -0.05540
C2194       C  0.16912193  0.80736661  0.46790258     0.00380
C2195       C  0.15485764  0.82756075  0.45176997    -0.08190
C2196       C  0.16851536  0.83951378  0.42908694    -0.05570
C2197       C  0.19557637  0.83287567  0.42227693     0.00370
C2198       C  0.21084494  0.81573048  0.43994329    -0.08100
C2199       C  0.24094726  0.80942939  0.43413871     0.62280
H2200       H  0.20886497  0.79020839  0.47564092     0.12970
H2201       H  0.15771361  0.85335864  0.41544139     0.12990
C2202       C  0.12593424  0.83796202  0.45800044     0.62510
F2203       F  0.25257143  0.79357380  0.45468764    -0.22650
F2204       F  0.25564284  0.83361268  0.43238301    -0.19980
F2205       F  0.24344945  0.79533859  0.40954601    -0.19660
F2206       F  0.12408898  0.84639335  0.48493159    -0.19710
F2207       F  0.10658976  0.81821001  0.45276510    -0.20030
F2208       F  0.11908807  0.86040924  0.44197700    -0.22710
C2209       C  0.51905194  0.14162605  0.25279583    -0.05540
C2210       C  0.53519115  0.12031527  0.24213723     0.00380
C2211       C  0.52726471  0.10742721  0.21722782    -0.08190
C2212       C  0.50534984  0.11883251  0.20222323    -0.05570
C2213       C  0.49240678  0.14329360  0.21048337     0.00370
C2214       C  0.49819742  0.15408520  0.23717084    -0.08100
C2215       C  0.48542367  0.18037906  0.24799888     0.62280
H2216       H  0.52513874  0.15039271  0.27235059     0.12970
H2217       H  0.50030280  0.11069407  0.18209920     0.12990
C2218       C  0.54284434  0.08303160  0.20543281     0.62510
F2219       F  0.49780739  0.18919610  0.27208304    -0.22650
F2220       F  0.45796269  0.17614110  0.25387355    -0.19980
F2221       F  0.48830033  0.20108790  0.22887190    -0.19660
F2222       F  0.53934504  0.06064768  0.22246932    -0.19710
F2223       F  0.57063321  0.08886577  0.20309736    -0.20030
F2224       F  0.53339909  0.07589550  0.17951960    -0.22710
C2225       C  0.52600130  0.18948711  0.12603291    -0.05540
C2226       C  0.55146187  0.19183794  0.13968560     0.00380
C2227       C  0.55388019  0.17880097  0.16543230    -0.08190
C2228       C  0.53017368  0.17465202  0.18060253    -0.05570
C2229       C  0.50423215  0.17112913  0.16796373     0.00370
C2230       C  0.50362174  0.17529521  0.13868057    -0.08100
C2231       C  0.48405102  0.16073190  0.11948379     0.62280
H2232       H  0.52426468  0.19650236  0.10494187     0.12970
H2233       H  0.53331021  0.17129314  0.20228041     0.12990
C2234       C  0.58060849  0.16786089  0.17741539     0.62510
F2235       F  0.49864203  0.14980949  0.09749805    -0.22650
F2236       F  0.46490618  0.17893863  0.10914446    -0.19980
F2237       F  0.47114398  0.13908116  0.13247413    -0.19660
F2238       F  0.58791973  0.18310847  0.20019567    -0.19710
F2239       F  0.60198227  0.16783968  0.15847236    -0.20030
F2240       F  0.57668922  0.14107170  0.18563335    -0.22710
C2241       C  0.40990649  0.21430521  0.14252226    -0.05540
C2242       C  0.38898955  0.19556496  0.13610235     0.00380
C2243       C  0.39452700  0.16732654  0.13755466    -0.08190
C2244       C  0.41922393  0.15875911  0.14967196    -0.05570
C2245       C  0.43816366  0.17743534  0.16128967     0.00370
C2246       C  0.43460640  0.20585460  0.15529575    -0.08100
C2247       C  0.45517742  0.22825116  0.16196351     0.62280
H2248       H  0.40597891  0.23596409  0.13956439     0.12970
H2249       H  0.42234790  0.13708690  0.15327752     0.12990
C2250       C  0.37383177  0.14636489  0.12740995     0.62510
F2251       F  0.46547057  0.23884087  0.13759434    -0.22650
F2252       F  0.47696738  0.21920587  0.17752599    -0.19980
F2253       F  0.44222802  0.24917400  0.17627813    -0.19660
F2254       F  0.36710098  0.15197329  0.10032423    -0.19710
F2255       F  0.35022374  0.14732771  0.14341099    -0.20030
F2256       F  0.38425253  0.11999874  0.12854061    -0.22710
C2257       C  0.43412346  0.12609252  0.21318715    -0.05540
C2258       C  0.43377435  0.15431403  0.20686881     0.00380
C2259       C  0.41123647  0.16995246  0.21667139    -0.08190
C2260       C  0.38834682  0.15629430  0.22689933    -0.05570
C2261       C  0.38997933  0.12920343  0.23683087     0.00370
C2262       C  0.41461227  0.11430981  0.23120501    -0.08100
C2263       C  0.42185882  0.08690762  0.24397603     0.62280
H2264       H  0.44990750  0.11304927  0.20453616     0.12970
H2265       H  0.36960989  0.16815755  0.22875355     0.12990
C2266       C  0.41072421  0.20086905  0.21904366     0.62510
F2267       F  0.45010961  0.08486344  0.24746293    -0.22650
F2268       F  0.41354404  0.06591174  0.22680321    -0.19980
F2269       F  0.40999219  0.08392204  0.26975372    -0.19660
F2270       F  0.43638331  0.21216068  0.21521640    -0.19710
F2271       F  0.40217699  0.20813798  0.24530764    -0.20030
F2272       F  0.39237132  0.21178672  0.20036487    -0.22710
C2273       C  0.16803851  0.51324591  0.14754930    -0.05540
C2274       C  0.17339945  0.50533626  0.17487303     0.00380
C2275       C  0.19727642  0.51618551  0.18801351    -0.08190
C2276       C  0.21343507  0.53529252  0.17404760    -0.05570
C2277       C  0.20609907  0.54559984  0.14829961     0.00370
C2278       C  0.18313632  0.53423587  0.13439604    -0.08100
C2279       C  0.17327975  0.54529030  0.10688917     0.62280
H2280       H  0.15107915  0.50388282  0.13688790     0.12970
H2281       H  0.23130410  0.54384107  0.18434497     0.12990
C2282       C  0.20715177  0.50919557  0.21668178     0.62510
F2283       F  0.14813605  0.53420600  0.09941763    -0.22650
F2284       F  0.19206522  0.53890855  0.08643723    -0.19980
F2285       F  0.17010787  0.57339859  0.10839526    -0.19660
F2286       F  0.23482943  0.50232378  0.21581361    -0.19710
F2287       F  0.19344782  0.48746102  0.22778367    -0.20030
F2288       F  0.20379565  0.53166229  0.23370632    -0.22710
C2289       C  0.09992172  0.54667145  0.20374159    -0.05540
C2290       C  0.10880507  0.55567410  0.22947440     0.00380
C2291       C  0.12660132  0.53872491  0.24503437    -0.08190
C2292       C  0.13716583  0.51469809  0.23280640    -0.05570
C2293       C  0.13107258  0.50725122  0.20548420     0.00370
C2294       C  0.11043359  0.52276787  0.19150678    -0.08100
C2295       C  0.09871464  0.51595265  0.16355060     0.62280
H2296       H  0.08563938  0.55937542  0.19227173     0.12970
H2297       H  0.15151081  0.50262746  0.24447339     0.12990
C2298       C  0.13594791  0.54548179  0.27406016     0.62510
F2299       F  0.10552966  0.53638694  0.14501344    -0.22650
F2300       F  0.07030278  0.51429158  0.16550131    -0.19980
F2301       F  0.10804503  0.49145975  0.15356907    -0.19660
F2302       F  0.12211290  0.56754630  0.28539424    -0.19710
F2303       F  0.16383658  0.55126280  0.27373642    -0.20030
F2304       F  0.13140374  0.52310710  0.29095388    -0.22710
C2305       C  0.12917845  0.40462011  0.23893941    -0.05540
C2306       C  0.10391138  0.39784792  0.22704960     0.00380
C2307       C  0.09069866  0.41752771  0.21002306    -0.08190
C2308       C  0.10529784  0.44165559  0.20307669    -0.05570
C2309       C  0.13321901  0.44499905  0.20989264     0.00370
C2310       C  0.14436960  0.42754554  0.23062618    -0.08100
C2311       C  0.17110474  0.43333344  0.24570981     0.62280
H2312       H  0.13763956  0.39065508  0.25403308     0.12970
H2313       H  0.09578850  0.45677734  0.18998424     0.12990
C2314       C  0.06255787  0.41260826  0.19735305     0.62510
F2315       F  0.17746425  0.41315083  0.26470158    -0.22650
F2316       F  0.16836892  0.45748234  0.26019870    -0.19980
F2317       F  0.19297061  0.43481273  0.22769353    -0.19660
F2318       F  0.04233954  0.41530610  0.21727338    -0.19710
F2319       F  0.06132019  0.38671651  0.18586705    -0.20030
F2320       F  0.05692096  0.43130150  0.17667981    -0.22710
C2321       C  0.19850948  0.44710764  0.17320606    -0.05540
C2322       C  0.16960452  0.44442969  0.17120481     0.00380
C2323       C  0.15934736  0.42282768  0.15406411    -0.08190
C2324       C  0.17754770  0.40266292  0.14451196    -0.05570
C2325       C  0.20574588  0.40424751  0.14915452     0.00370
C2326       C  0.21676486  0.42737923  0.16242853    -0.08100
C2327       C  0.24762851  0.43047464  0.16603177     0.62280
H2328       H  0.20699078  0.46322692  0.18549591     0.12970
H2329       H  0.16952644  0.38494194  0.13367294     0.12990
C2330       C  0.12998629  0.41955453  0.14428943     0.62510
F2331       F  0.25444565  0.45548750  0.17756466    -0.22650
F2332       F  0.26047733  0.42858599  0.14060532    -0.19980
F2333       F  0.25750401  0.41000643  0.18300841    -0.19660
F2334       F  0.11495032  0.44302561  0.14718962    -0.19710
F2335       F  0.11745689  0.39841414  0.15850635    -0.20030
F2336       F  0.12984343  0.41322149  0.11646435    -0.22710
C2337       C  0.11584489  0.17060696  0.54980569    -0.05540
C2338       C  0.13719415  0.18204318  0.53379758     0.00380
C2339       C  0.14439899  0.21001088  0.53849253    -0.08190
C2340       C  0.12975473  0.22497184  0.55842374    -0.05570
C2341       C  0.11045634  0.21255209  0.57576921     0.00370
C2342       C  0.10285464  0.18506079  0.57123483    -0.08100
C2343       C  0.08226728  0.17061784  0.58989452     0.62280
H2344       H  0.11042800  0.14953197  0.54669103     0.12970
H2345       H  0.13551393  0.24605524  0.56252386     0.12990
C2346       C  0.16826740  0.22510816  0.52538855     0.62510
F2347       F  0.07847855  0.14352461  0.58239365    -0.22650
F2348       F  0.05702810  0.18363852  0.58847289    -0.19980
F2349       F  0.09149394  0.17108507  0.61682260    -0.19660
F2350       F  0.15821955  0.24544706  0.50834052    -0.19710
F2351       F  0.18517445  0.20832600  0.51049910    -0.20030
F2352       F  0.18424084  0.23707129  0.54567655    -0.22710
C2353       C  0.17170070  0.10426997  0.56364820    -0.05540
C2354       C  0.19219023  0.11761318  0.57885493     0.00380
C2355       C  0.20486543  0.14124539  0.56775923    -0.08190
C2356       C  0.19305511  0.15349619  0.54460320    -0.05570
C2357       C  0.17011497  0.14224130  0.53115815     0.00370
C2358       C  0.16094554  0.11569916  0.53924206    -0.08100
C2359       C  0.14091570  0.09882230  0.52229006     0.62280
H2360       H  0.16341263  0.08530363  0.57172030     0.12970
H2361       H  0.20122024  0.17292338  0.53791500     0.12990
C2362       C  0.23005588  0.15497948  0.58007784     0.62510
F2363       F  0.13440113  0.07430772  0.53506574    -0.22650
F2364       F  0.15277151  0.09255024  0.49718846    -0.19980
F2365       F  0.11666838  0.11270931  0.51808359    -0.19660
F2366       F  0.24331444  0.13874116  0.59922888    -0.19710
F2367       F  0.22225898  0.17928964  0.59248872    -0.20030
F2368       F  0.24884684  0.16070770  0.55933843    -0.22710
C2369       C  0.19124335  0.13542284  0.46907746    -0.05540
C2370       C  0.16283063  0.14148390  0.46878513     0.00380
C2371       C  0.14645650  0.12959830  0.44757550    -0.08190
C2372       C  0.15953372  0.11724084  0.42511096    -0.05570
C2373       C  0.18808825  0.11472737  0.42362527     0.00370
C2374       C  0.20438762  0.12289202  0.44630946    -0.08100
C2375       C  0.23553398  0.12026296  0.44554730     0.62280
H2376       H  0.20357864  0.14309663  0.48589583     0.12970
H2377       H  0.14724511  0.11008336  0.40791056     0.12990
C2378       C  0.11526348  0.12878734  0.44729761     0.62510
F2379       F  0.24760173  0.13089648  0.46903670    -0.22650
F2380       F  0.24596716  0.13425804  0.42303280    -0.19980
F2381       F  0.24283856  0.09298305  0.44358711    -0.19660
F2382       F  0.10549549  0.14757509  0.42840861    -0.19710
F2383       F  0.10394686  0.13390324  0.47276127    -0.20030
F2384       F  0.10645022  0.10295202  0.43954988    -0.22710
C2385       C  0.13807723  0.22509761  0.44037347    -0.05540
C2386       C  0.11010041  0.22067797  0.43444898     0.00380
C2387       C  0.09485766  0.20412295  0.45338395    -0.08190
C2388       C  0.10960323  0.19014496  0.47419879    -0.05570
C2389       C  0.13847513  0.18769734  0.47307360     0.00370
C2390       C  0.15318570  0.20635391  0.45592858    -0.08100
C2391       C  0.18419183  0.20752071  0.45117292     0.62280
H2392       H  0.14935550  0.24039233  0.42867451     0.12970
H2393       H  0.09859327  0.17845191  0.48959786     0.12990
C2394       C  0.06392991  0.19981415  0.45178226     0.62510
F2395       F  0.18966485  0.20224916  0.42366920    -0.22650
F2396       F  0.19908674  0.18924620  0.46650443    -0.19980
F2397       F  0.19365758  0.23352722  0.45737436    -0.19660
F2398       F  0.05678559  0.18999859  0.42605556    -0.19710
F2399       F  0.05051120  0.22420604  0.45722235    -0.20030
F2400       F  0.05473058  0.18089336  0.47097517    -0.22710
loop_ 
_geom_bond_atom_site_label_1 
_geom_bond_atom_site_label_2 
_geom_bond_distance 
_geom_bond_site_symmetry_2 
_ccdc_geom_bond_type 
C1            C2   1.373       .  D
C1         C2370   1.508       .  S
C1         C2389   1.505       .  S
C2         C2338   1.508       .  S
C2         C2357   1.501       .  S
C3            C4   1.381       .  D
C3         C2309   1.512       .  S
C3         C2322   1.525       .  S
C4         C2274   1.505       .  S
C4         C2293   1.512       .  S
C5            C6   1.382       .  D
C5         C2245   1.507       .  S
C5         C2258   1.511       .  S
C6         C2213   1.513       .  S
C6         C2229   1.535       .  S
C7            C8   1.377       .  D
C7         C2178   1.506       .  S
C7         C2194   1.520       .  S
C8         C2146   1.513       .  S
C8         C2165   1.511       .  S
C9           C10   1.374       .  D
C9         C2114   1.505       .  S
C9         C2130   1.504       .  S
C10        C2082   1.523       .  S
C10        C2101   1.502       .  S
C11          C12   1.376       .  D
C11        C2018   1.508       .  S
C11        C2034   1.512       .  S
C12        C2050   1.509       .  S
C12        C2066   1.515       .  S
C13          C14   1.384       .  D
C13        C1989   1.501       .  S
C13        C2002   1.514       .  S
C14        C1954   1.526       .  S
C14        C1973   1.524       .  S
C15          C16   1.387       .  D
C15        C1922   1.498       .  S
C15        C1938   1.514       .  S
C16        C1890   1.517       .  S
C16        C1906   1.520       .  S
C17          C18   1.370       .  D
C17        C1858   1.510       .  S
C17        C1874   1.514       .  S
C18        C1826   1.501       .  S
C18        C1842   1.500       .  S
C19          C20   1.375       .  D
C19        C1794   1.507       .  S
C19        C1810   1.501       .  S
C20        C1762   1.507       .  S
C20        C1781   1.505       .  S
C21          C22   1.369       .  D
C21        C1730   1.503       .  S
C21        C1746   1.509       .  S
C22        C1698   1.496       .  S
C22        C1714   1.496       .  S
C23          C24   1.378       .  D
C23        C1666   1.516       .  S
C23        C1682   1.505       .  S
C24        C1634   1.514       .  S
C24        C1650   1.503       .  S
C25          C26   1.409       .  A
C25          C30   1.422       .  A
C25        C1618   1.513       .  S
C26          C27   1.403       .  A
C26          H31   1.070       .  S
C27          C28   1.400       .  A
C27        C1653   1.474       .  S
C28          C29   1.392       .  A
C28          H32   1.085       .  S
C29          C30   1.405       .  A
C29          C88   1.486       .  S
C30          H33   1.083       .  S
C34          C35   1.397       .  A
C34          C39   1.400       .  A
C34        C1602   1.465       .  S
C35          C36   1.401       .  A
C35          H40   1.084       .  S
C36          C37   1.406       .  A
C36        C1701   1.475       .  S
C37          C38   1.401       .  A
C37          H41   1.083       .  S
C38          C39   1.400       .  A
C38          C95   1.477       .  S
C39          H42   1.083       .  S
C43          C44   1.404       .  A
C43          C48   1.407       .  A
C43        C1586   1.486       .  S
C44          C45   1.403       .  A
C44          H49   1.083       .  S
C45          C46   1.404       .  A
C45        C1717   1.476       .  S
C46          C47   1.401       .  A
C46          H50   1.084       .  S
C47          C48   1.400       .  A
C47          C96   1.482       .  S
C48          H51   1.083       .  S
C52          C53   1.408       .  A
C52          C57   1.407       .  A
C52        C1570   1.486       .  S
C53          C54   1.405       .  A
C53          H58   1.083       .  S
C54          C55   1.406       .  A
C54        C2021   1.486       .  S
C55          C56   1.405       .  A
C55          H59   1.084       .  S
C56          C57   1.404       .  A
C56         C120   1.487       .  S
C57          H60   1.084       .  S
C61          C62   1.410       .  A
C61          C66   1.407       .  A
C61        C1554   1.488       .  S
C62          C63   1.411       .  A
C62          H67   1.082       .  S
C63          C64   1.401       .  A
C63        C2037   1.486       .  S
C64          C65   1.398       .  A
C64          H68   1.085       .  S
C65          C66   1.404       .  A
C65         C122   1.482       .  S
C66          H69   1.084       .  S
C70          C71   1.422       .  A
C70          C75   1.412       .  A
C70        C1538   1.512       .  S
C71          C72   1.417       .  A
C71          H76   1.075       .  S
C72          C73   1.403       .  A
C72        C1637   1.499       .  S
C73          C74   1.395       .  A
C73          H77   1.083       .  S
C74          C75   1.397       .  A
C74          C84   1.480       .  S
C75          H78   1.084       .  S
O79         Mg81   2.137       .  S
O79         Mg87   2.156       .  S
O79         C114   1.235       .  S
C80         H119   1.081       .  S
C80          O93   1.235       .  S
C80         O117   1.268       .  A
Mg81        O110   2.160       .  S
Mg81        O125   2.313       .  S
Mg81        O121   2.258       .  S
Mg81         O92   2.299       .  S
O82        Mg124   2.162       .  S
O82        Mg107   2.139       .  S
O82         C103   1.234       .  S
O83         C114   1.269       .  A
O83        Mg107   2.293       .  S
C84          O86   1.271       .  A
C84          O98   1.275       .  A
O85         C113   1.270       .  A
O85         Mg87   2.298       .  S
O86        Mg118   2.248       .  S
Mg87         O93   2.143       .  S
Mg87        O101   2.273       .  S
Mg87         O89   2.307       .  S
C88         O126   1.275       .  A
C88          O94   1.274       .  A
O89          C96   1.277       .  A
H90         C103   1.081       .  S
C91         H116   1.081       .  S
C91         O105   1.234       .  S
C91         O106   1.268       .  A
O92         C115   1.270       .  A
O93        Mg107   2.161       .  S
O94        Mg124   2.301       .  S
C95         O108   1.271       .  A
C95         O100   1.275       .  A
C96         O123   1.272       .  A
Mg97        O104   2.152       .  S
Mg97        O105   2.159       .  S
Mg97         O98   2.297       .  S
Mg97         O99   2.290       .  S
Mg97        O126   2.272       .  S
O99         C103   1.267       .  A
O100       Mg107   2.301       .  S
O101        C120   1.274       .  A
O102        C122   1.273       .  A
O102       Mg118   2.298       .  S
O104       Mg118   2.167       .  S
O104        C115   1.235       .  S
O105       Mg124   2.136       .  S
O106       Mg118   2.293       .  S
Mg107       O123   2.252       .  S
O108       Mg124   2.241       .  S
H109        C114   1.081       .  S
O110       Mg118   2.147       .  S
O110        C113   1.235       .  S
H111        C113   1.081       .  S
H112        C115   1.081       .  S
O117       Mg124   2.290       .  S
C120        O125   1.277       .  A
O121        C122   1.273       .  A
C127        C128   1.368   1_554  D
C127       C1506   1.499       .  S
C127       C1525   1.504       .  S
C128       C1605   1.498       .  S
C128       C1621   1.505       .  S
C129        C130   1.387       .  D
C129       C1541   1.519       .  S
C129       C1557   1.518       .  S
C130       C1474   1.522   1_565  S
C130       C1490   1.523   1_565  S
C131        C132   1.385       .  D
C131       C1573   1.518       .  S
C131       C1589   1.505       .  S
C132       C1442   1.523       .  S
C132       C1458   1.510   1_655  S
C133        C134   1.405       .  A
C133        C138   1.406       .  A
C133       C1426   1.486       .  S
C134        C135   1.407       .  A
C134        H139   1.084       .  S
C135        C136   1.402       .  A
C135       C1749   1.475       .  S
C136        C137   1.400       .  A
C136        H140   1.085       .  S
C137        C138   1.403       .  A
C137        C196   1.481       .  S
C138        H141   1.084       .  S
C142        C143   1.403       .  A
C142        C147   1.409       .  A
C142       C1410   1.480       .  S
C143        C144   1.395       .  A
C143        H148   1.085       .  S
C144        C145   1.399       .  A
C144        C203   1.474       .  S
C145        C146   1.403       .  A
C145        H149   1.085       .  S
C146        C147   1.409       .  A
C146       C1957   1.479       .  S
C147        H150   1.082       .  S
C151        C152   1.402       .  A
C151        C156   1.403       .  A
C151       C1733   1.485       .  S
C152        C153   1.397       .  A
C152        H157   1.082       .  S
C153        C154   1.402       .  A
C153        C192   1.475       .  S
C154        C155   1.405       .  A
C154        H158   1.083       .  S
C155        C156   1.407       .  A
C155       C1394   1.488       .  S
C156        H159   1.081       .  S
C160        C161   1.398       .  A
C160        C165   1.426       .  A
C160       C2098   1.515       .  S
C161        C162   1.386       .  A
C161        H166   1.066       .  S
C162        C163   1.399       .  A
C162        C230   1.478       .  S
C163        C164   1.404       .  A
C163        H167   1.084       .  S
C164        C165   1.417       .  A
C164       C1378   1.490       .  S
C165        H168   1.080       .  S
C169        C170   1.404       .  A
C169        C174   1.412       .  A
C169       C2085   1.492       .  S
C170        C171   1.403       .  A
C170        H175   1.084       .  S
C171        C172   1.410       .  A
C171       C1477   1.489       .  S
C172        C173   1.411       .  A
C172        H176   1.081       .  S
C173        C174   1.407       .  A
C173        C228   1.504       .  S
C174        H177   1.074       .  S
C178        C179   1.427       .  A
C178        C183   1.408       .  A
C178       C1970   1.507       .  S
C179        C180   1.432       .  A
C179        H184   1.074       .  S
C180        C181   1.412       .  A
C180       C1493   1.533       .  S
C181        C182   1.389       .  A
C181        H185   1.078       .  S
C182        C183   1.381       .  A
C182        C204   1.470       .  S
C183        H186   1.083       .  S
O187       Mg189   2.150       .  S
O187       Mg195   2.167       .  S
O187        C222   1.235       .  S
C188        H227   1.081       .  S
C188        O201   1.235       .  S
C188        O225   1.270       .  A
Mg189       O218   2.154       .  S
Mg189       O233   2.373       .  S
Mg189       O229   2.293       .  S
Mg189       O200   2.289       .  S
O190       Mg232   2.161       .  S
O190       Mg215   2.147       .  S
O190        C211   1.235       .  S
O191        C222   1.269       .  A
O191       Mg215   2.297       .  S
C192        O194   1.267       .  A
C192        O206   1.274       .  A
O193        C221   1.264       .  A
O193       Mg195   2.280       .  S
O194       Mg226   2.224       .  S
Mg195       O201   2.170       .  S
Mg195       O209   2.287       .  S
Mg195       O197   2.276       .  S
C196        O234   1.272       .  A
C196        O202   1.274       .  A
O197        C204   1.274       .  A
H198        C211   1.081       .  S
C199        H224   1.081       .  S
C199        O213   1.236       .  S
C199        O214   1.268       .  A
O200        C223   1.269       .  A
O201       Mg215   2.176       .  S
O202       Mg232   2.300       .  S
C203        O216   1.268       .  A
C203        O208   1.271       .  A
C204        O231   1.268       .  A
Mg205       O212   2.130       .  S
Mg205       O213   2.157       .  S
Mg205       O206   2.296       .  S
Mg205       O207   2.302       .  S
Mg205       O234   2.254       .  S
O207        C211   1.269       .  A
O208       Mg215   2.286       .  S
O209        C228   1.278       .  A
O210        C230   1.268       .  A
O210       Mg226   2.261       .  S
O212       Mg226   2.159       .  S
O212        C223   1.236       .  S
O213       Mg232   2.120       .  S
O214       Mg226   2.282       .  S
Mg215       O231   2.244       .  S
O216       Mg232   2.237       .  S
H217        C222   1.081       .  S
O218       Mg226   2.133       .  S
O218        C221   1.231       .  S
H219        C221   1.081       .  S
H220        C223   1.081       .  S
O225       Mg232   2.308       .  S
C228        O233   1.287       .  A
O229        C230   1.280       .  A
C235        C236   1.406       .  A
C235        C240   1.427       .  A
C235       C1362   1.520       .  S
C236        C237   1.393       .  A
C236        H241   1.069       .  S
C237        C238   1.395       .  A
C237        C305   1.482       .  S
C238        C239   1.404       .  A
C238        H242   1.084       .  S
C239        C240   1.413       .  A
C239       C1669   1.496       .  S
C240        H243   1.079       .  S
C244        C245   1.406       .  A
C244        C249   1.412       .  A
C244       C1346   1.485       .  S
C245        C246   1.401       .  A
C245        H250   1.084       .  S
C246        C247   1.399       .  A
C246       C1909   1.478       .  S
C247        C248   1.404       .  A
C247        H251   1.084       .  S
C248        C249   1.407       .  A
C248        C298   1.492       .  S
C249        H252   1.079       .  S
C253        C254   1.406       .  A
C253        C258   1.417       .  A
C253       C1333   1.499       .  S
C254        C255   1.400       .  A
C254        H259   1.075       .  S
C255        C256   1.398       .  A
C255       C1685   1.468       .  S
C256        C257   1.395       .  A
C256        H260   1.085       .  S
C257        C258   1.401       .  A
C257        C306   1.481       .  S
C258        H261   1.083       .  S
C262        C263   1.410       .  A
C262        C267   1.402       .  A
C262       C2149   1.484       .  S
C263        C264   1.406       .  A
C263        H268   1.084       .  S
C264        C265   1.401       .  A
C264        C330   1.484       .  S
C265        C266   1.400       .  A
C265        H269   1.084       .  S
C266        C267   1.398       .  A
C266       C1314   1.469       .  S
C267        H270   1.082       .  S
C271        C272   1.410       .  A
C271        C276   1.405       .  A
C271       C1445   1.488       .  S
C272        C273   1.409       .  A
C272        H277   1.079       .  S
C273        C274   1.414       .  A
C273       C1893   1.499       .  S
C274        C275   1.403       .  A
C274        H278   1.084       .  S
C275        C276   1.402       .  A
C275        C294   1.491       .  S
C276        H279   1.084       .  S
C280        C281   1.403       .  A
C280        C285   1.402       .  A
C280       C2162   1.473       .  S
C281        C282   1.402       .  A
C281        H286   1.083       .  S
C282        C283   1.404       .  A
C282       C1461   1.480       .  S
C283        C284   1.401       .  A
C283        H287   1.084       .  S
C284        C285   1.402       .  A
C284        C332   1.479       .  S
C285        H288   1.084       .  S
O289       Mg291   2.135       .  S
O289       Mg297   2.160       .  S
O289        C324   1.235       .  S
C290        H329   1.081       .  S
C290        O303   1.238       .  S
C290        O327   1.272       .  A
Mg291       O320   2.164       .  S
Mg291       O335   2.312       .  S
Mg291       O331   2.248       .  S
Mg291       O302   2.291       .  S
O292       Mg334   2.151       .  S
O292       Mg317   2.145       .  S
O292        C313   1.235       .  S
O293        C324   1.268       .  A
O293       Mg317   2.289       .  S
C294        O296   1.274       .  A
C294        O308   1.279       .  A
O295        C323   1.268       .  A
O295       Mg297   2.292       .  S
O296       Mg328   2.267       .  S
Mg297       O303   2.147       .  S
Mg297       O311   2.255       .  S
Mg297       O299   2.307       .  S
C298        O336   1.274       .  A
C298        O304   1.282       .  A
O299        C306   1.274       .  A
H300        C313   1.081       .  S
C301        H326   1.081       .  S
C301        O315   1.236       .  S
C301        O316   1.270       .  A
O302        C325   1.269       .  A
O303       Mg317   2.158       .  S
O304       Mg334   2.358       .  S
C305        O318   1.275       .  A
C305        O310   1.272       .  A
C306        O333   1.271       .  A
Mg307       O314   2.135       .  S
Mg307       O315   2.155       .  S
Mg307       O308   2.332       .  S
Mg307       O309   2.296       .  S
Mg307       O336   2.249       .  S
O309        C313   1.269       .  A
O310       Mg317   2.292       .  S
O311        C330   1.273       .  A
O312        C332   1.276       .  A
O312       Mg328   2.303       .  S
O314       Mg328   2.151       .  S
O314        C325   1.235       .  S
O315       Mg334   2.149       .  S
O316       Mg328   2.296       .  S
Mg317       O333   2.246       .  S
O318       Mg334   2.273       .  S
H319        C324   1.081       .  S
O320       Mg328   2.145       .  S
O320        C323   1.234       .  S
H321        C323   1.081       .  S
H322        C325   1.081       .  S
O327       Mg334   2.304       .  S
C330        O335   1.276       .  A
O331        C332   1.272       .  A
C337        C338   1.374       .  D
C337       C1317   1.515       .  S
C337       C1330   1.500       .  S
C338       C1282   1.506   1_565  S
C338       C1298   1.495   1_565  S
C339        C340   1.422       .  A
C339        C344   1.413       .  A
C339       C1266   1.516       .  S
C340        C341   1.417       .  A
C340        H345   1.075       .  S
C341        C342   1.406       .  A
C341       C2005   1.491       .  S
C342        C343   1.398       .  A
C342        H346   1.084       .  S
C343        C344   1.386       .  A
C343        C436   1.482       .  S
C344        H347   1.083       .  S
C348        C349   1.408       .  A
C348        C353   1.413       .  A
C348       C1250   1.483       .  S
C349        C350   1.407       .  A
C349        H354   1.083       .  S
C350        C351   1.402       .  A
C350       C1925   1.492       .  S
C351        C352   1.399       .  A
C351        H355   1.082       .  S
C352        C353   1.402       .  A
C352        C434   1.489       .  S
C353        H356   1.081       .  S
C357        C358   1.403       .  A
C357        C362   1.401       .  A
C357       C1301   1.477       .  S
C358        C359   1.403       .  A
C358        H363   1.084       .  S
C359        C360   1.408       .  A
C359       C2354   1.481       .  S
C360        C361   1.404       .  A
C360        H364   1.084       .  S
C361        C362   1.399       .  A
C361        C402   1.478       .  S
C362        H365   1.084       .  S
C366        C367   1.409       .  A
C366        C371   1.410       .  A
C366       C1285   1.489       .  S
C367        C368   1.406       .  A
C367        H372   1.077       .  S
C368        C369   1.401       .  A
C368       C1986   1.484       .  S
C369        C370   1.395       .  A
C369        H373   1.085       .  S
C370        C371   1.400       .  A
C370        C398   1.479       .  S
C371        H374   1.084       .  S
C375        C376   1.404       .  A
C375        C380   1.410       .  A
C375       C1234   1.482       .  S
C376        C377   1.399       .  A
C376        H381   1.082       .  S
C377        C378   1.399       .  A
C377       C2341   1.474       .  S
C378        C379   1.401       .  A
C378        H382   1.084       .  S
C379        C380   1.407       .  A
C379        C409   1.484       .  S
C380        H383   1.084       .  S
C384        C385   1.409       .  A
C384        C389   1.401       .  A
C384       C1221   1.484       .  S
C385        C386   1.407       .  A
C385        H390   1.083       .  S
C386        C387   1.408       .  A
C386       C1941   1.491       .  S
C387        C388   1.410       .  A
C387        H391   1.084       .  S
C388        C389   1.402       .  A
C388        C410   1.485       .  S
C389        H392   1.084       .  S
O393       Mg395   2.165       .  S
O393       Mg401   2.165       .  S
O393        C428   1.235       .  S
C394        H433   1.081       .  S
C394        O407   1.234       .  S
C394        O431   1.268       .  A
Mg395       O424   2.159       .  S
Mg395       O439   2.350       .  S
Mg395       O435   2.285       .  S
Mg395       O406   2.296       .  S
O396       Mg438   2.166       .  S
O396       Mg421   2.149       .  S
O396        C417   1.235       .  S
O397        C428   1.270       .  A
O397       Mg421   2.301       .  S
C398        O400   1.270       .  A
C398        O412   1.273       .  A
O399        C427   1.267       .  A
O399       Mg401   2.287       .  S
O400       Mg432   2.236       .  S
Mg401       O407   2.146       .  S
Mg401       O415   2.234       .  S
Mg401       O403   2.309       .  S
C402        O440   1.271       .  A
C402        O408   1.274       .  A
O403        C410   1.275       .  A
H404        C417   1.081       .  S
C405        H430   1.081       .  S
C405        O419   1.235       .  S
C405        O420   1.268       .  A
O406        C429   1.269       .  A
O407       Mg421   2.157       .  S
O408       Mg438   2.302       .  S
C409        O422   1.272       .  A
C409        O414   1.276       .  A
C410        O437   1.273       .  A
Mg411       O418   2.142       .  S
Mg411       O419   2.164       .  S
Mg411       O412   2.302       .  S
Mg411       O413   2.295       .  S
Mg411       O440   2.241       .  S
O413        C417   1.269       .  A
O414       Mg421   2.318       .  S
O415        C434   1.272       .  A
O416        C436   1.272       .  A
O416       Mg432   2.288       .  S
O418       Mg432   2.158       .  S
O418        C429   1.235       .  S
O419       Mg438   2.141       .  S
O420       Mg432   2.290       .  S
Mg421       O437   2.259       .  S
O422       Mg438   2.247       .  S
H423        C428   1.081       .  S
O424       Mg432   2.139       .  S
O424        C427   1.234       .  S
H425        C427   1.081       .  S
H426        C429   1.081       .  S
O431       Mg438   2.293       .  S
C434        O439   1.280       .  A
O435        C436   1.279       .  A
C441        C442   1.382       .  D
C441       C1381   1.526       .  S
C441       C1397   1.508       .  S
C442       C1218   1.520       .  S
C442       C1237   1.512       .  S
C443        C444   1.379   1_554  D
C443       C1186   1.510       .  S
C443       C1202   1.508       .  S
C444       C1253   1.516       .  S
C444       C1269   1.514       .  S
C445        C446   1.374       .  D
C445       C1122   1.503       .  S
C445       C1138   1.505       .  S
C446       C1154   1.516   1_565  S
C446       C1170   1.511   1_565  S
C447        C448   1.407       .  A
C447        C452   1.411       .  A
C447       C1205   1.496       .  S
C448        C449   1.407       .  A
C448        H453   1.081       .  S
C449        C450   1.400       .  A
C449       C2325   1.473       .  S
C450        C451   1.396       .  A
C450        H454   1.085       .  S
C451        C452   1.405       .  A
C451        C510   1.482       .  S
C452        H455   1.084       .  S
C456        C457   1.401       .  A
C456        C461   1.401       .  A
C456       C1189   1.475       .  S
C457        C458   1.402       .  A
C457        H462   1.084       .  S
C458        C459   1.412       .  A
C458       C2242   1.481       .  S
C459        C460   1.407       .  A
C459        H463   1.083       .  S
C460        C461   1.404       .  A
C460        C517   1.489       .  S
C461        H464   1.084       .  S
C465        C466   1.410       .  A
C465        C470   1.406       .  A
C465       C1173   1.489       .  S
C466        C467   1.414       .  A
C466        H471   1.076       .  S
C467        C468   1.408       .  A
C467       C2261   1.503       .  S
C468        C469   1.385       .  A
C468        H472   1.082       .  S
C469        C470   1.398       .  A
C469        C518   1.473       .  S
C470        H473   1.082       .  S
C474        C475   1.404       .  A
C474        C479   1.405       .  A
C474       C1157   1.479       .  S
C475        C476   1.403       .  A
C475        H480   1.083       .  S
C476        C477   1.404       .  A
C476       C2373   1.478       .  S
C477        C478   1.401       .  A
C477        H481   1.084       .  S
C478        C479   1.405       .  A
C478        C542   1.482       .  S
C479        H482   1.084       .  S
C483        C484   1.409       .  A
C483        C488   1.410       .  A
C483       C1106   1.494       .  S
C484        C485   1.394       .  A
C484        H489   1.085       .  S
C485        C486   1.394       .  A
C485        C544   1.484       .  S
C486        C487   1.417       .  A
C486        H490   1.083       .  S
C487        C488   1.414       .  A
C487       C2386   1.515       .  S
C488        H491   1.066       .  S
C492        C493   1.400       .  A
C492        C497   1.401       .  A
C492       C1090   1.472       .  S
C493        C494   1.405       .  A
C493        H498   1.077       .  S
C494        C495   1.418       .  A
C494       C2306   1.494       .  S
C495        C496   1.405       .  A
C495        H499   1.084       .  S
C496        C497   1.398       .  A
C496        C506   1.488       .  S
C497        H500   1.085       .  S
O501       Mg503   2.139       .  S
O501       Mg509   2.160       .  S
O501        C536   1.235       .  S
C502        H541   1.081       .  S
C502        O515   1.234       .  S
C502        O539   1.268       .  A
Mg503       O532   2.168       .  S
Mg503       O547   2.317       .  S
Mg503       O543   2.253       .  S
Mg503       O514   2.294       .  S
O504       Mg546   2.158       .  S
O504       Mg529   2.145       .  S
O504        C525   1.236       .  S
O505        C536   1.269       .  A
O505       Mg529   2.295       .  S
C506        O508   1.275       .  A
C506        O520   1.278       .  A
O507        C535   1.268       .  A
O507       Mg509   2.291       .  S
O508       Mg540   2.265       .  S
Mg509       O515   2.143       .  S
Mg509       O523   2.230       .  S
Mg509       O511   2.269       .  S
C510        O548   1.275       .  A
C510        O516   1.273       .  A
O511        C518   1.268       .  A
H512        C525   1.081       .  S
C513        H538   1.081       .  S
C513        O527   1.235       .  S
C513        O528   1.269       .  A
O514        C537   1.268       .  A
O515       Mg529   2.166       .  S
O516       Mg546   2.290       .  S
C517        O530   1.272       .  A
C517        O522   1.279       .  A
C518        O545   1.276       .  A
Mg519       O526   2.149       .  S
Mg519       O527   2.158       .  S
Mg519       O520   2.326       .  S
Mg519       O521   2.298       .  S
Mg519       O548   2.271       .  S
O521        C525   1.270       .  A
O522       Mg529   2.343       .  S
O523        C542   1.267       .  A
O524        C544   1.277       .  A
O524       Mg540   2.313       .  S
O526       Mg540   2.161       .  S
O526        C537   1.234       .  S
O527       Mg546   2.148       .  S
O528       Mg540   2.294       .  S
Mg529       O545   2.266       .  S
O530       Mg546   2.250       .  S
H531        C536   1.081       .  S
O532       Mg540   2.151       .  S
O532        C535   1.235       .  S
H533        C535   1.081       .  S
H534        C537   1.081       .  S
O539       Mg546   2.290       .  S
C542        O547   1.277       .  A
O543        C544   1.273       .  A
C549        C550   1.377       .  D
C549       C1093   1.512       .  S
C549       C1109   1.503       .  S
C550       C1058   1.517       .  S
C550       C1074   1.502       .  S
C551        C552   1.379   1_556  D
C551       C1413   1.512       .  S
C551       C1429   1.498       .  S
C552       C1026   1.513       .  S
C552       C1042   1.510       .  S
C553        C554   1.410       .  A
C553        C558   1.406       .  A
C553       C1813   1.481       .  S
C554        C555   1.406       .  A
C554        H559   1.079       .  S
C555        C556   1.403       .  A
C555       C1077   1.489       .  S
C556        C557   1.392       .  A
C556        H560   1.084       .  S
C557        C558   1.394       .  A
C557        C624   1.472       .  S
C558        H561   1.083       .  S
C562        C563   1.401       .  A
C562        C567   1.401       .  A
C562       C2117   1.469       .  S
C563        C564   1.401       .  A
C563        H568   1.084       .  S
C564        C565   1.406       .  A
C564       C1061   1.478       .  S
C565        C566   1.408       .  A
C565        H569   1.084       .  S
C566        C567   1.397       .  A
C566        C623   1.480       .  S
C567        H570   1.085       .  S
C571        C572   1.417       .  A
C571        C576   1.413       .  A
C571       C1045   1.492       .  S
C572        C573   1.414       .  A
C572        H577   1.080       .  S
C573        C574   1.407       .  A
C573       C2226   1.496       .  S
C574        C575   1.385       .  A
C574        H578   1.081       .  S
C575        C576   1.389       .  A
C575        C650   1.478       .  S
C576        H579   1.084       .  S
C580        C581   1.407       .  A
C580        C585   1.407       .  A
C580       C1029   1.488       .  S
C581        C582   1.407       .  A
C581        H586   1.083       .  S
C582        C583   1.402       .  A
C582       C1797   1.479       .  S
C583        C584   1.399       .  A
C583        H587   1.085       .  S
C584        C585   1.407       .  A
C584        C648   1.484       .  S
C585        H588   1.084       .  S
C589        C590   1.412       .  A
C589        C594   1.403       .  A
C589       C2210   1.483       .  S
C590        C591   1.402       .  A
C590        H595   1.083       .  S
C591        C592   1.408       .  A
C591        C612   1.490       .  S
C592        C593   1.403       .  A
C592        H596   1.084       .  S
C593        C594   1.400       .  A
C593       C1010   1.479       .  S
C594        H597   1.081       .  S
C598        C599   1.412       .  A
C598        C603   1.402       .  A
C598       C2133   1.490       .  S
C599        C600   1.406       .  A
C599        H604   1.084       .  S
C600        C601   1.397       .  A
C600        C616   1.487       .  S
C601        C602   1.406       .  A
C601        H605   1.083       .  S
C602        C603   1.403       .  A
C602        C997   1.482       .  S
C603        H606   1.079       .  S
O607       Mg609   2.136       .  S
O607       Mg615   2.159       .  S
O607        C642   1.234       .  S
C608        H647   1.081       .  S
C608        O621   1.235       .  S
C608        O645   1.269       .  A
Mg609       O638   2.176       .  S
Mg609       O653   2.292       .  S
Mg609       O649   2.232       .  S
Mg609       O620   2.299       .  S
O610       Mg652   2.155       .  S
O610       Mg635   2.121       .  S
O610        C631   1.234       .  S
O611        C642   1.268       .  A
O611       Mg635   2.290       .  S
C612        O614   1.279       .  A
C612        O626   1.274       .  A
O613        C641   1.269       .  A
O613       Mg615   2.304       .  S
O614       Mg646   2.313       .  S
Mg615       O621   2.149       .  S
Mg615       O629   2.263       .  S
Mg615       O617   2.293       .  S
C616        O654   1.276       .  A
C616        O622   1.274       .  A
O617        C624   1.272       .  A
H618        C631   1.081       .  S
C619        H644   1.081       .  S
C619        O633   1.234       .  S
C619        O634   1.268       .  A
O620        C643   1.269       .  A
O621       Mg635   2.168       .  S
O622       Mg652   2.298       .  S
C623        O636   1.274       .  A
C623        O628   1.271       .  A
C624        O651   1.266       .  A
Mg625       O632   2.168       .  S
Mg625       O633   2.163       .  S
Mg625       O626   2.283       .  S
Mg625       O627   2.282       .  S
Mg625       O654   2.286       .  S
O627        C631   1.266       .  A
O628       Mg635   2.279       .  S
O629        C648   1.272       .  A
O630        C650   1.280       .  A
O630       Mg646   2.322       .  S
O632       Mg646   2.171       .  S
O632        C643   1.234       .  S
O633       Mg652   2.145       .  S
O634       Mg646   2.297       .  S
Mg635       O651   2.209       .  S
O636       Mg652   2.273       .  S
H637        C642   1.081       .  S
O638       Mg646   2.166       .  S
O638        C641   1.234       .  S
H639        C641   1.081       .  S
H640        C643   1.081       .  S
O645       Mg652   2.295       .  S
C648        O653   1.272       .  A
O649        C650   1.267       .  A
C655        C656   1.376       .  D
C655        C994   1.499   1_565  S
C655       C1013   1.518   1_565  S
C656        C962   1.507       .  S
C656        C978   1.500       .  S
C657        C658   1.413       .  A
C657        C662   1.401       .  A
C657        C965   1.480       .  S
C658        C659   1.418       .  A
C658        H663   1.075       .  S
C659        C660   1.412       .  A
C659       C2053   1.512       .  S
C660        C661   1.387       .  A
C660        H664   1.083       .  S
C661        C662   1.395       .  A
C661        C727   1.474       .  S
C662        H665   1.084       .  S
C666        C667   1.410       .  A
C666        C671   1.406       .  A
C666        C981   1.488       .  S
C667        C668   1.411       .  A
C667        H672   1.078       .  S
C668        C669   1.411       .  A
C668       C1845   1.499       .  S
C669        C670   1.399       .  A
C669        H673   1.084       .  S
C670        C671   1.395       .  A
C670        C728   1.482       .  S
C671        H674   1.083       .  S
C675        C676   1.404       .  A
C675        C680   1.406       .  A
C675        C949   1.486       .  S
C676        C677   1.405       .  A
C676        H681   1.083       .  S
C677        C678   1.414       .  A
C677       C2069   1.494       .  S
C678        C679   1.410       .  A
C678        H682   1.080       .  S
C679        C680   1.410       .  A
C679        C720   1.500       .  S
C680        H683   1.084       .  S
C684        C685   1.402       .  A
C684        C689   1.400       .  A
C684        C930   1.476       .  S
C685        C686   1.402       .  A
C685        H690   1.084       .  S
C686        C687   1.404       .  A
C686       C1765   1.476       .  S
C687        C688   1.405       .  A
C687        H691   1.084       .  S
C688        C689   1.401       .  A
C688        C716   1.479       .  S
C689        H692   1.084       .  S
C693        C694   1.399       .  A
C693        C698   1.403       .  A
C693       C1509   1.473       .  S
C694        C695   1.401       .  A
C694        H699   1.084       .  S
C695        C696   1.402       .  A
C695       C1829   1.469       .  S
C696        C697   1.400       .  A
C696        H700   1.084       .  S
C697        C698   1.403       .  A
C697        C752   1.478       .  S
C698        H701   1.084       .  S
C702        C703   1.403       .  A
C702        C707   1.407       .  A
C702       C1522   1.489       .  S
C703        C704   1.408       .  A
C703        H708   1.077       .  S
C704        C705   1.409       .  A
C704       C1778   1.488       .  S
C705        C706   1.397       .  A
C705        H709   1.082       .  S
C706        C707   1.397       .  A
C706        C754   1.482       .  S
C707        H710   1.084       .  S
O711       Mg713   2.128       .  S
O711       Mg719   2.162       .  S
O711        C746   1.236       .  S
C712        H751   1.081       .  S
C712        O725   1.236       .  S
C712        O749   1.270       .  A
Mg713       O742   2.161       .  S
Mg713       O757   2.296       .  S
Mg713       O753   2.236       .  S
Mg713       O724   2.295       .  S
O714       Mg756   2.165       .  S
O714       Mg739   2.156       .  S
O714        C735   1.235       .  S
O715        C746   1.269       .  A
O715       Mg739   2.289       .  S
C716        O718   1.271       .  A
C716        O730   1.277       .  A
O717        C745   1.267       .  A
O717       Mg719   2.289       .  S
O718       Mg750   2.246       .  S
Mg719       O725   2.137       .  S
Mg719       O733   2.253       .  S
Mg719       O721   2.288       .  S
C720        O758   1.275       .  A
C720        O726   1.284       .  A
O721        C728   1.273       .  A
H722        C735   1.081       .  S
C723        H748   1.081       .  S
C723        O737   1.236       .  S
C723        O738   1.270       .  A
O724        C747   1.269       .  A
O725       Mg739   2.156       .  S
O726       Mg756   2.367       .  S
C727        O740   1.278       .  A
C727        O732   1.270       .  A
C728        O755   1.272       .  A
Mg729       O736   2.153       .  S
Mg729       O737   2.151       .  S
Mg729       O730   2.302       .  S
Mg729       O731   2.295       .  S
Mg729       O758   2.276       .  S
O731        C735   1.269       .  A
O732       Mg739   2.275       .  S
O733        C752   1.272       .  A
O734        C754   1.276       .  A
O734       Mg750   2.314       .  S
O736       Mg750   2.164       .  S
O736        C747   1.235       .  S
O737       Mg756   2.144       .  S
O738       Mg750   2.298       .  S
Mg739       O755   2.262       .  S
O740       Mg756   2.274       .  S
H741        C746   1.081       .  S
O742       Mg750   2.136       .  S
O742        C745   1.234       .  S
H743        C745   1.081       .  S
H744        C747   1.081       .  S
O749       Mg756   2.297       .  S
C752        O757   1.274       .  A
O753        C754   1.270       .  A
C759        C760   1.383       .  D
C759        C933   1.486       .  S
C759        C946   1.529       .  S
C760        C898   1.500   1_655  S
C760        C914   1.529       .  S
C761        C762   1.406       .  A
C761        C766   1.401       .  A
C761       C2197   1.481       .  S
C762        C763   1.410       .  A
C762        H767   1.078       .  S
C763        C764   1.411       .  A
C763       C1141   1.499       .  S
C764        C765   1.401       .  A
C764        H768   1.084       .  S
C765        C766   1.402       .  A
C765        C824   1.483       .  S
C766        H769   1.084       .  S
C770        C771   1.402       .  A
C770        C775   1.403       .  A
C770       C1125   1.473       .  S
C771        C772   1.400       .  A
C771        H776   1.084       .  S
C772        C773   1.399       .  A
C772       C1861   1.468       .  S
C773        C774   1.399       .  A
C773        H777   1.085       .  S
C774        C775   1.405       .  A
C774        C820   1.475       .  S
C775        H778   1.084       .  S
C779        C780   1.401       .  A
C779        C784   1.414       .  A
C779        C882   1.482       .  S
C780        C781   1.402       .  A
C780        H785   1.080       .  S
C781        C782   1.406       .  A
C781       C2277   1.483       .  S
C782        C783   1.402       .  A
C782        H786   1.084       .  S
C783        C784   1.402       .  A
C783        C856   1.493       .  S
C784        H787   1.078       .  S
C788        C789   1.410       .  A
C788        C793   1.400       .  A
C788        C917   1.489       .  S
C789        C790   1.407       .  A
C789        H794   1.083       .  S
C790        C791   1.404       .  A
C790       C2290   1.483       .  S
C791        C792   1.404       .  A
C791        H795   1.084       .  S
C792        C793   1.403       .  A
C792        C832   1.478       .  S
C793        H796   1.083       .  S
C797        C798   1.411       .  A
C797        C802   1.410       .  A
C797       C2181   1.498       .  S
C798        C799   1.409       .  A
C798        H803   1.074       .  S
C799        C800   1.404       .  A
C799        C901   1.487       .  S
C800        C801   1.402       .  A
C800        H804   1.084       .  S
C801        C802   1.393       .  A
C801        C831   1.481       .  S
C802        H805   1.084       .  S
C806        C807   1.418       .  A
C806        C811   1.413       .  A
C806        C866   1.514       .  S
C807        C808   1.412       .  A
C807        H812   1.077       .  S
C808        C809   1.407       .  A
C808       C1877   1.493       .  S
C809        C810   1.399       .  A
C809        H813   1.084       .  S
C810        C811   1.393       .  A
C810        C858   1.486       .  S
C811        H814   1.081       .  S
O815       Mg817   2.151       .  S
O815       Mg823   2.171       .  S
O815        C850   1.235       .  S
C816        H855   1.081       .  S
C816        O829   1.233       .  S
C816        O853   1.267       .  A
Mg817       O846   2.156       .  S
Mg817       O861   2.359       .  S
Mg817       O857   2.288       .  S
Mg817       O828   2.310       .  S
O818       Mg860   2.161       .  S
O818       Mg843   2.132       .  S
O818        C839   1.232       .  S
O819        C850   1.268       .  A
O819       Mg843   2.288       .  S
C820        O822   1.268       .  A
C820        O834   1.270       .  A
O821        C849   1.267       .  A
O821       Mg823   2.292       .  S
O822       Mg854   2.241       .  S
Mg823       O829   2.146       .  S
Mg823       O837   2.247       .  S
Mg823       O825   2.310       .  S
C824        O862   1.272       .  A
C824        O830   1.275       .  A
O825        C832   1.275       .  A
H826        C839   1.081       .  S
C827        H852   1.081       .  S
C827        O841   1.236       .  S
C827        O842   1.270       .  A
O828        C851   1.271       .  A
O829       Mg843   2.162       .  S
O830       Mg860   2.296       .  S
C831        O844   1.274       .  A
C831        O836   1.270       .  A
C832        O859   1.268       .  A
Mg833       O840   2.163       .  S
Mg833       O841   2.171       .  S
Mg833       O834   2.279       .  S
Mg833       O835   2.288       .  S
Mg833       O862   2.258       .  S
O835        C839   1.265       .  A
O836       Mg843   2.273       .  S
O837        C856   1.274       .  A
O838        C858   1.271       .  A
O838       Mg854   2.292       .  S
O840       Mg854   2.156       .  S
O840        C851   1.236       .  S
O841       Mg860   2.149       .  S
O842       Mg854   2.302       .  S
Mg843       O859   2.223       .  S
O844       Mg860   2.270       .  S
H845        C850   1.081       .  S
O846       Mg854   2.148       .  S
O846        C849   1.233       .  S
H847        C849   1.081       .  S
H848        C851   1.081       .  S
O853       Mg860   2.293       .  S
C856        O861   1.283       .  A
O857        C858   1.277       .  A
C863        C864   1.387   1_556  D
C863       C1349   1.531       .  S
C863       C1365   1.522       .  S
C864        C869   1.521       .  S
C864        C885   1.513       .  S
C865        C866   1.411       .  A
C865        C870   1.420       .  A
C865        H872   1.080       .  S
C866        C867   1.408       .  A
C867        C868   1.406       .  A
C867        C874   1.523       .  S
C868        C869   1.409       .  A
C868        H873   1.080       .  S
C869        C870   1.440       .  A
C870        C871   1.512       .  S
C871        F875   1.384       .  S
C871        F876   1.367       .  S
C871        F877   1.383       .  S
C874        F878   1.381       .  S
C874        F879   1.374       .  S
C874        F880   1.379       .  S
C881        C882   1.406       .  A
C881        C886   1.416       .  A
C881        H888   1.084       .  S
C882        C883   1.407       .  A
C883        C884   1.397       .  A
C883        C890   1.522       .  S
C884        C885   1.410       .  A
C884        H889   1.070       .  S
C885        C886   1.423       .  A
C886        C887   1.510       .  S
C887        F891   1.383       .  S
C887        F892   1.381       .  S
C887        F893   1.384       .  S
C890        F894   1.380       .  S
C890        F895   1.383       .  S
C890        F896   1.385       .  S
C897        C898   1.409       .  A
C897        C902   1.410       .  A
C897        H904   1.081       .  S
C898        C899   1.427       .  A
C899        C900   1.405       .  A
C899        C906   1.521       .  S
C900        C901   1.401       .  A
C900        H905   1.086       .  S
C901        C902   1.413       .  A
C902        C903   1.518       .  S
C903        F907   1.384       .  S
C903        F908   1.381       .  S
C903        F909   1.383       .  S
C906        F910   1.384       .  S
C906        F911   1.374   1_455  S
C906        F912   1.383       .  S
C913        C914   1.407   1_455  A
C913        C918   1.411       .  A
C913        H920   1.073   1_455  S
C914        C915   1.414       .  A
C915        C916   1.404   1_655  A
C915        C922   1.524       .  S
C916        C917   1.410       .  A
C916        H921   1.083       .  S
C917        C918   1.428       .  A
C918        C919   1.519       .  S
C919        F923   1.384       .  S
C919        F924   1.383       .  S
C919        F925   1.382       .  S
C922        F926   1.375       .  S
C922        F927   1.383       .  S
C922        F928   1.386       .  S
C929        C930   1.401       .  A
C929        C934   1.404       .  A
C929        H936   1.085       .  S
C930        C931   1.419       .  A
C931        C932   1.397       .  A
C931        C938   1.520       .  S
C932        C933   1.401       .  A
C932        H937   1.085       .  S
C933        C934   1.427       .  A
C934        C935   1.520       .  S
C935        F939   1.380       .  S
C935        F940   1.378       .  S
C935        F941   1.382       .  S
C938        F942   1.383       .  S
C938        F943   1.382       .  S
C938        F944   1.385       .  S
C945        C946   1.409       .  A
C945        C950   1.411       .  A
C945        H952   1.057       .  S
C946        C947   1.426       .  A
C947        C948   1.408       .  A
C947        C954   1.503       .  S
C948        C949   1.396       .  A
C948        H953   1.085       .  S
C949        C950   1.409       .  A
C950        C951   1.517       .  S
C951        F955   1.384       .  S
C951        F956   1.384       .  S
C951        F957   1.382       .  S
C954        F958   1.377       .  S
C954        F959   1.382       .  S
C954        F960   1.384       .  S
C961        C962   1.408       .  A
C961        C966   1.405       .  A
C961        H968   1.077       .  S
C962        C963   1.430       .  A
C963        C964   1.409       .  A
C963        C970   1.513       .  S
C964        C965   1.398       .  A
C964        H969   1.085       .  S
C965        C966   1.410       .  A
C966        C967   1.518       .  S
C967        F971   1.385       .  S
C967        F972   1.382       .  S
C967        F973   1.383       .  S
C970        F974   1.383       .  S
C970        F975   1.366       .  S
C970        F976   1.384       .  S
C977        C978   1.404       .  A
C977        C982   1.393       .  A
C977        H984   1.076       .  S
C978        C979   1.427       .  A
C979        C980   1.413       .  A
C979        C986   1.513       .  S
C980        C981   1.404       .  A
C980        H985   1.084       .  S
C981        C982   1.413       .  A
C982        C983   1.519       .  S
C983        F987   1.384       .  S
C983        F988   1.383       .  S
C983        F989   1.383       .  S
C986        F990   1.383       .  S
C986        F991   1.374       .  S
C986        F992   1.383       .  S
C993        C994   1.404       .  A
C993        C998   1.391       .  A
C993       H1000   1.077       .  S
C994        C995   1.425       .  A
C995        C996   1.411       .  A
C995       C1002   1.519   1_545  S
C996        C997   1.404       .  A
C996       H1001   1.082       .  S
C997        C998   1.411       .  A
C998        C999   1.518       .  S
C999       F1003   1.384       .  S
C999       F1004   1.383       .  S
C999       F1005   1.383       .  S
C1002      F1006   1.381       .  S
C1002      F1007   1.376       .  S
C1002      F1008   1.385   1_565  S
C1009      C1010   1.398       .  A
C1009      C1014   1.411       .  A
C1009      H1016   1.085       .  S
C1010      C1011   1.405       .  A
C1011      C1012   1.404       .  A
C1011      C1018   1.519       .  S
C1012      C1013   1.414       .  A
C1012      H1017   1.074       .  S
C1013      C1014   1.432       .  A
C1014      C1015   1.514       .  S
C1015      F1019   1.382   1_545  S
C1015      F1020   1.369   1_545  S
C1015      F1021   1.385       .  S
C1018      F1022   1.383       .  S
C1018      F1023   1.383       .  S
C1018      F1024   1.384       .  S
C1025      C1026   1.411       .  A
C1025      C1030   1.403       .  A
C1025      H1032   1.081       .  S
C1026      C1027   1.428       .  A
C1027      C1028   1.416       .  A
C1027      C1034   1.517       .  S
C1028      C1029   1.403       .  A
C1028      H1033   1.083       .  S
C1029      C1030   1.411       .  A
C1030      C1031   1.519       .  S
C1031      F1035   1.385       .  S
C1031      F1036   1.383       .  S
C1031      F1037   1.381       .  S
C1034      F1038   1.381   1_554  S
C1034      F1039   1.374       .  S
C1034      F1040   1.385       .  S
C1041      C1042   1.411       .  A
C1041      C1046   1.410       .  A
C1041      H1048   1.082       .  S
C1042      C1043   1.428       .  A
C1043      C1044   1.404       .  A
C1043      C1050   1.527       .  S
C1044      C1045   1.402       .  A
C1044      H1049   1.083       .  S
C1045      C1046   1.416       .  A
C1046      C1047   1.518       .  S
C1047      F1051   1.385       .  S
C1047      F1052   1.383       .  S
C1047      F1053   1.382       .  S
C1050      F1054   1.379       .  S
C1050      F1055   1.370       .  S
C1050      F1056   1.385       .  S
C1057      C1058   1.413       .  A
C1057      C1062   1.408       .  A
C1057      H1064   1.079       .  S
C1058      C1059   1.426       .  A
C1059      C1060   1.405       .  A
C1059      C1066   1.508       .  S
C1060      C1061   1.397       .  A
C1060      H1065   1.085       .  S
C1061      C1062   1.408       .  A
C1062      C1063   1.515       .  S
C1063      F1067   1.384       .  S
C1063      F1068   1.383       .  S
C1063      F1069   1.383       .  S
C1066      F1070   1.383       .  S
C1066      F1071   1.368       .  S
C1066      F1072   1.384       .  S
C1073      C1074   1.411       .  A
C1073      C1078   1.409       .  A
C1073      H1080   1.081       .  S
C1074      C1075   1.420       .  A
C1075      C1076   1.396       .  A
C1075      C1082   1.516       .  S
C1076      C1077   1.403       .  A
C1076      H1081   1.086       .  S
C1077      C1078   1.418       .  A
C1078      C1079   1.519       .  S
C1079      F1083   1.385       .  S
C1079      F1084   1.384       .  S
C1079      F1085   1.381       .  S
C1082      F1086   1.384       .  S
C1082      F1087   1.369       .  S
C1082      F1088   1.384       .  S
C1089      C1090   1.395       .  A
C1089      C1094   1.402   1_455  A
C1089      H1096   1.085       .  S
C1090      C1091   1.409       .  A
C1091      C1092   1.403       .  A
C1091      C1098   1.518       .  S
C1092      C1093   1.411   1_455  A
C1092      H1097   1.079       .  S
C1093      C1094   1.428       .  A
C1094      C1095   1.510       .  S
C1095      F1099   1.385   1_655  S
C1095      F1100   1.383       .  S
C1095      F1101   1.363       .  S
C1098      F1102   1.382       .  S
C1098      F1103   1.383       .  S
C1098      F1104   1.385       .  S
C1105      C1106   1.403       .  A
C1105      C1110   1.400       .  A
C1105      H1112   1.083       .  S
C1106      C1107   1.416       .  A
C1107      C1108   1.413   1_455  A
C1107      C1114   1.518       .  S
C1108      C1109   1.411       .  A
C1108      H1113   1.080       .  S
C1109      C1110   1.425   1_655  A
C1110      C1111   1.525       .  S
C1111      F1115   1.385       .  S
C1111      F1116   1.379       .  S
C1111      F1117   1.374   1_455  S
C1114      F1118   1.383       .  S
C1114      F1119   1.381       .  S
C1114      F1120   1.385       .  S
C1121      C1122   1.409       .  A
C1121      C1126   1.411       .  A
C1121      H1128   1.078       .  S
C1122      C1123   1.428       .  A
C1123      C1124   1.398       .  A
C1123      C1130   1.514       .  S
C1124      C1125   1.391       .  A
C1124      H1129   1.086       .  S
C1125      C1126   1.411       .  A
C1126      C1127   1.516       .  S
C1127      F1131   1.384       .  S
C1127      F1132   1.384       .  S
C1127      F1133   1.382       .  S
C1130      F1134   1.371       .  S
C1130      F1135   1.384       .  S
C1130      F1136   1.382       .  S
C1137      C1138   1.404       .  A
C1137      C1142   1.413       .  A
C1137      H1144   1.077       .  S
C1138      C1139   1.423       .  A
C1139      C1140   1.400       .  A
C1139      C1146   1.519       .  S
C1140      C1141   1.404       .  A
C1140      H1145   1.085       .  S
C1141      C1142   1.423       .  A
C1142      C1143   1.520       .  S
C1143      F1147   1.385       .  S
C1143      F1148   1.383       .  S
C1143      F1149   1.380       .  S
C1146      F1150   1.383       .  S
C1146      F1151   1.374       .  S
C1146      F1152   1.384       .  S
C1153      C1154   1.407       .  A
C1153      C1158   1.402       .  A
C1153      H1160   1.073   1_545  S
C1154      C1155   1.424       .  A
C1155      C1156   1.409       .  A
C1155      C1162   1.512       .  S
C1156      C1157   1.399       .  A
C1156      H1161   1.084       .  S
C1157      C1158   1.412       .  A
C1158      C1159   1.518       .  S
C1159      F1163   1.384       .  S
C1159      F1164   1.383       .  S
C1159      F1165   1.382       .  S
C1162      F1166   1.379       .  S
C1162      F1167   1.379       .  S
C1162      F1168   1.385       .  S
C1169      C1170   1.409       .  A
C1169      C1174   1.401       .  A
C1169      H1176   1.082       .  S
C1170      C1171   1.427       .  A
C1171      C1172   1.412       .  A
C1171      C1178   1.518   1_545  S
C1172      C1173   1.403       .  A
C1172      H1177   1.083       .  S
C1173      C1174   1.414       .  A
C1174      C1175   1.517       .  S
C1175      F1179   1.384       .  S
C1175      F1180   1.383       .  S
C1175      F1181   1.383       .  S
C1178      F1182   1.379       .  S
C1178      F1183   1.372       .  S
C1178      F1184   1.385   1_565  S
C1185      C1186   1.411       .  A
C1185      C1190   1.401       .  A
C1185      H1192   1.081       .  S
C1186      C1187   1.429       .  A
C1187      C1188   1.408       .  A
C1187      C1194   1.515       .  S
C1188      C1189   1.399       .  A
C1188      H1193   1.085       .  S
C1189      C1190   1.409       .  A
C1190      C1191   1.519       .  S
C1191      F1195   1.385       .  S
C1191      F1196   1.382       .  S
C1191      F1197   1.383       .  S
C1194      F1198   1.384       .  S
C1194      F1199   1.370   1_554  S
C1194      F1200   1.384       .  S
C1201      C1202   1.410       .  A
C1201      C1206   1.417       .  A
C1201      H1208   1.082       .  S
C1202      C1203   1.424       .  A
C1203      C1204   1.398       .  A
C1203      C1210   1.518       .  S
C1204      C1205   1.400       .  A
C1204      H1209   1.085       .  S
C1205      C1206   1.420       .  A
C1206      C1207   1.518       .  S
C1207      F1211   1.384       .  S
C1207      F1212   1.383       .  S
C1207      F1213   1.381       .  S
C1210      F1214   1.372       .  S
C1210      F1215   1.384       .  S
C1210      F1216   1.383       .  S
C1217      C1218   1.409       .  A
C1217      C1222   1.408   1_655  A
C1217      H1224   1.075       .  S
C1218      C1219   1.432   1_655  A
C1219      C1220   1.405       .  A
C1219      C1226   1.513       .  S
C1220      C1221   1.395       .  A
C1220      H1225   1.086       .  S
C1221      C1222   1.415       .  A
C1222      C1223   1.518       .  S
C1223      F1227   1.384   1_455  S
C1223      F1228   1.382       .  S
C1223      F1229   1.383       .  S
C1226      F1230   1.385       .  S
C1226      F1231   1.366   1_455  S
C1226      F1232   1.382       .  S
C1233      C1234   1.397       .  A
C1233      C1238   1.405       .  A
C1233      H1240   1.084       .  S
C1234      C1235   1.413       .  A
C1235      C1236   1.410       .  A
C1235      C1242   1.520       .  S
C1236      C1237   1.406   1_455  A
C1236      H1241   1.072   1_455  S
C1237      C1238   1.426   1_655  A
C1238      C1239   1.517   1_455  S
C1239      F1243   1.381       .  S
C1239      F1244   1.372       .  S
C1239      F1245   1.385   1_655  S
C1242      F1246   1.380       .  S
C1242      F1247   1.384       .  S
C1242      F1248   1.384       .  S
C1249      C1250   1.397       .  A
C1249      C1254   1.408       .  A
C1249      H1256   1.085       .  S
C1250      C1251   1.407       .  A
C1251      C1252   1.408       .  A
C1251      C1258   1.514       .  S
C1252      C1253   1.413       .  A
C1252      H1257   1.084       .  S
C1253      C1254   1.433       .  A
C1254      C1255   1.515       .  S
C1255      F1259   1.383       .  S
C1255      F1260   1.365   1_556  S
C1255      F1261   1.385       .  S
C1258      F1262   1.383       .  S
C1258      F1263   1.383       .  S
C1258      F1264   1.384       .  S
C1265      C1266   1.410       .  A
C1265      C1270   1.388       .  A
C1265      H1272   1.084       .  S
C1266      C1267   1.428       .  A
C1267      C1268   1.422       .  A
C1267      C1274   1.515       .  S
C1268      C1269   1.414       .  A
C1268      H1273   1.079       .  S
C1269      C1270   1.413       .  A
C1270      C1271   1.517       .  S
C1271      F1275   1.378       .  S
C1271      F1276   1.375       .  S
C1271      F1277   1.385       .  S
C1274      F1278   1.382       .  S
C1274      F1279   1.383       .  S
C1274      F1280   1.385       .  S
C1281      C1282   1.408       .  A
C1281      C1286   1.412       .  A
C1281      H1288   1.078       .  S
C1282      C1283   1.422       .  A
C1283      C1284   1.400       .  A
C1283      C1290   1.509       .  S
C1284      C1285   1.400       .  A
C1284      H1289   1.086       .  S
C1285      C1286   1.417       .  A
C1286      C1287   1.518       .  S
C1287      F1291   1.384       .  S
C1287      F1292   1.381       .  S
C1287      F1293   1.383       .  S
C1290      F1294   1.384       .  S
C1290      F1295   1.367   1_545  S
C1290      F1296   1.383       .  S
C1297      C1298   1.404       .  A
C1297      C1302   1.397       .  A
C1297      H1304   1.081       .  S
C1298      C1299   1.422       .  A
C1299      C1300   1.405       .  A
C1299      C1306   1.511       .  S
C1300      C1301   1.401       .  A
C1300      H1305   1.085       .  S
C1301      C1302   1.413       .  A
C1302      C1303   1.517       .  S
C1303      F1307   1.384       .  S
C1303      F1308   1.383       .  S
C1303      F1309   1.383       .  S
C1306      F1310   1.384       .  S
C1306      F1311   1.373   1_545  S
C1306      F1312   1.383       .  S
C1313      C1314   1.393       .  A
C1313      C1318   1.401       .  A
C1313      H1320   1.085       .  S
C1314      C1315   1.406       .  A
C1315      C1316   1.404       .  A
C1315      C1322   1.517       .  S
C1316      C1317   1.411       .  A
C1316      H1321   1.069       .  S
C1317      C1318   1.429       .  A
C1318      C1319   1.515       .  S
C1319      F1323   1.384       .  S
C1319      F1324   1.383       .  S
C1319      F1325   1.375       .  S
C1322      F1326   1.383       .  S
C1322      F1327   1.383       .  S
C1322      F1328   1.384       .  S
C1329      C1330   1.405       .  A
C1329      C1334   1.412       .  A
C1329      H1336   1.078       .  S
C1330      C1331   1.423       .  A
C1331      C1332   1.397       .  A
C1331      C1338   1.521       .  S
C1332      C1333   1.403       .  A
C1332      H1337   1.085       .  S
C1333      C1334   1.425       .  A
C1334      C1335   1.521       .  S
C1335      F1339   1.385       .  S
C1335      F1340   1.383       .  S
C1335      F1341   1.381       .  S
C1338      F1342   1.383       .  S
C1338      F1343   1.372       .  S
C1338      F1344   1.384       .  S
C1345      C1346   1.390       .  A
C1345      C1350   1.408       .  A
C1345      H1352   1.083       .  S
C1346      C1347   1.406       .  A
C1347      C1348   1.413       .  A
C1347      C1354   1.515       .  S
C1348      C1349   1.416       .  A
C1348      H1353   1.079       .  S
C1349      C1350   1.442       .  A
C1350      C1351   1.517       .  S
C1351      F1355   1.386       .  S
C1351      F1356   1.374       .  S
C1351      F1357   1.378   1_556  S
C1354      F1358   1.383       .  S
C1354      F1359   1.383       .  S
C1354      F1360   1.384       .  S
C1361      C1362   1.409       .  A
C1361      C1366   1.414       .  A
C1361      H1368   1.080       .  S
C1362      C1363   1.433       .  A
C1363      C1364   1.399       .  A
C1363      C1370   1.526       .  S
C1364      C1365   1.400       .  A
C1364      H1369   1.074       .  S
C1365      C1366   1.429       .  A
C1366      C1367   1.510       .  S
C1367      F1371   1.386       .  S
C1367      F1372   1.372       .  S
C1367      F1373   1.378   1_556  S
C1370      F1374   1.380       .  S
C1370      F1375   1.383       .  S
C1370      F1376   1.384       .  S
C1377      C1378   1.397       .  A
C1377      C1382   1.411       .  A
C1377      H1384   1.084       .  S
C1378      C1379   1.412       .  A
C1379      C1380   1.412       .  A
C1379      C1386   1.518       .  S
C1380      C1381   1.412       .  A
C1380      H1385   1.072       .  S
C1381      C1382   1.429       .  A
C1382      C1383   1.507       .  S
C1383      F1387   1.385       .  S
C1383      F1388   1.373       .  S
C1383      F1389   1.381       .  S
C1386      F1390   1.383       .  S
C1386      F1391   1.381       .  S
C1386      F1392   1.384       .  S
C1393      C1394   1.404       .  A
C1393      C1398   1.405       .  A
C1393      H1400   1.081       .  S
C1394      C1395   1.417       .  A
C1395      C1396   1.400       .  A
C1395      C1402   1.519       .  S
C1396      C1397   1.406       .  A
C1396      H1401   1.079       .  S
C1397      C1398   1.422       .  A
C1398      C1399   1.516       .  S
C1399      F1403   1.367       .  S
C1399      F1404   1.379       .  S
C1399      F1405   1.385       .  S
C1402      F1406   1.383       .  S
C1402      F1407   1.383       .  S
C1402      F1408   1.384       .  S
C1409      C1410   1.399       .  A
C1409      C1414   1.404       .  A
C1409      H1416   1.085       .  S
C1410      C1411   1.410       .  A
C1411      C1412   1.407       .  A
C1411      C1418   1.518       .  S
C1412      C1413   1.410       .  A
C1412      H1417   1.076       .  S
C1413      C1414   1.426       .  A
C1414      C1415   1.512       .  S
C1415      F1419   1.383       .  S
C1415      F1420   1.365       .  S
C1415      F1421   1.385       .  S
C1418      F1422   1.382       .  S
C1418      F1423   1.383       .  S
C1418      F1424   1.385       .  S
C1425      C1426   1.404       .  A
C1425      C1430   1.417       .  A
C1425      H1432   1.083       .  S
C1426      C1427   1.415       .  A
C1427      C1428   1.396       .  A
C1427      C1434   1.521       .  S
C1428      C1429   1.404       .  A
C1428      H1433   1.079       .  S
C1429      C1430   1.425       .  A
C1430      C1431   1.519       .  S
C1431      F1435   1.384       .  S
C1431      F1436   1.382   1_556  S
C1431      F1437   1.379       .  S
C1434      F1438   1.383       .  S
C1434      F1439   1.383       .  S
C1434      F1440   1.384       .  S
C1441      C1442   1.414   1_455  A
C1441      C1446   1.406       .  A
C1441      H1448   1.073       .  S
C1442      C1443   1.431   1_655  A
C1443      C1444   1.410       .  A
C1443      C1450   1.513   1_455  S
C1444      C1445   1.399       .  A
C1444      H1449   1.085       .  S
C1445      C1446   1.411       .  A
C1446      C1447   1.521       .  S
C1447      F1451   1.385       .  S
C1447      F1452   1.381       .  S
C1447      F1453   1.383       .  S
C1450      F1454   1.384       .  S
C1450      F1455   1.366       .  S
C1450      F1456   1.384   1_655  S
C1457      C1458   1.411       .  A
C1457      C1462   1.407       .  A
C1457      H1464   1.074   1_455  S
C1458      C1459   1.426       .  A
C1459      C1460   1.401       .  A
C1459      C1466   1.511       .  S
C1460      C1461   1.398       .  A
C1460      H1465   1.086       .  S
C1461      C1462   1.409       .  A
C1462      C1463   1.519       .  S
C1463      F1467   1.385       .  S
C1463      F1468   1.384       .  S
C1463      F1469   1.381       .  S
C1466      F1470   1.384       .  S
C1466      F1471   1.362   1_455  S
C1466      F1472   1.384       .  S
C1473      C1474   1.405       .  A
C1473      C1478   1.411       .  A
C1473      H1480   1.064   1_545  S
C1474      C1475   1.422       .  A
C1475      C1476   1.411       .  A
C1475      C1482   1.513       .  S
C1476      C1477   1.402       .  A
C1476      H1481   1.084       .  S
C1477      C1478   1.415       .  A
C1478      C1479   1.520       .  S
C1479      F1483   1.384       .  S
C1479      F1484   1.384       .  S
C1479      F1485   1.382       .  S
C1482      F1486   1.380       .  S
C1482      F1487   1.383   1_545  S
C1482      F1488   1.385       .  S
C1489      C1490   1.413       .  A
C1489      C1494   1.420       .  A
C1489      H1496   1.072   1_545  S
C1490      C1491   1.414       .  A
C1491      C1492   1.394       .  A
C1491      C1498   1.516       .  S
C1492      C1493   1.417       .  A
C1492      H1497   1.076       .  S
C1493      C1494   1.429       .  A
C1494      C1495   1.512       .  S
C1495      F1499   1.386   1_545  S
C1495      F1500   1.382       .  S
C1495      F1501   1.380       .  S
C1498      F1502   1.377       .  S
C1498      F1503   1.373       .  S
C1498      F1504   1.384       .  S
C1505      C1506   1.410       .  A
C1505      C1510   1.401       .  A
C1505      H1512   1.078       .  S
C1506      C1507   1.423       .  A
C1507      C1508   1.408       .  A
C1507      C1514   1.515       .  S
C1508      C1509   1.401       .  A
C1508      H1513   1.085       .  S
C1509      C1510   1.406       .  A
C1510      C1511   1.518       .  S
C1511      F1515   1.385       .  S
C1511      F1516   1.383       .  S
C1511      F1517   1.383       .  S
C1514      F1518   1.383       .  S
C1514      F1519   1.373       .  S
C1514      F1520   1.384       .  S
C1521      C1522   1.401       .  A
C1521      C1526   1.399       .  A
C1521      H1528   1.084       .  S
C1522      C1523   1.419       .  A
C1523      C1524   1.410       .  A
C1523      C1530   1.519       .  S
C1524      C1525   1.408       .  A
C1524      H1529   1.081       .  S
C1525      C1526   1.419       .  A
C1526      C1527   1.515       .  S
C1527      F1531   1.385       .  S
C1527      F1532   1.377       .  S
C1527      F1533   1.373       .  S
C1530      F1534   1.383       .  S
C1530      F1535   1.381       .  S
C1530      F1536   1.385       .  S
C1537      C1538   1.408       .  A
C1537      C1542   1.407       .  A
C1537      H1544   1.085       .  S
C1538      C1539   1.420       .  A
C1539      C1540   1.414       .  A
C1539      C1546   1.515       .  S
C1540      C1541   1.411       .  A
C1540      H1545   1.081       .  S
C1541      C1542   1.421       .  A
C1542      C1543   1.508       .  S
C1543      F1547   1.385       .  S
C1543      F1548   1.376       .  S
C1543      F1549   1.379       .  S
C1546      F1550   1.384       .  S
C1546      F1551   1.381       .  S
C1546      F1552   1.385       .  S
C1553      C1554   1.395       .  A
C1553      C1558   1.406       .  A
C1553      H1560   1.086       .  S
C1554      C1555   1.410       .  A
C1555      C1556   1.414       .  A
C1555      C1562   1.515       .  S
C1556      C1557   1.414       .  A
C1556      H1561   1.079       .  S
C1557      C1558   1.433       .  A
C1558      C1559   1.514       .  S
C1559      F1563   1.384       .  S
C1559      F1564   1.370       .  S
C1559      F1565   1.384       .  S
C1562      F1566   1.383       .  S
C1562      F1567   1.383       .  S
C1562      F1568   1.385       .  S
C1569      C1570   1.399       .  A
C1569      C1574   1.411       .  A
C1569      H1576   1.083       .  S
C1570      C1571   1.413       .  A
C1571      C1572   1.404       .  A
C1571      C1578   1.518       .  S
C1572      C1573   1.408       .  A
C1572      H1577   1.074       .  S
C1573      C1574   1.429       .  A
C1574      C1575   1.515       .  S
C1575      F1579   1.385       .  S
C1575      F1580   1.376       .  S
C1575      F1581   1.375       .  S
C1578      F1582   1.383       .  S
C1578      F1583   1.383       .  S
C1578      F1584   1.384       .  S
C1585      C1586   1.402       .  A
C1585      C1590   1.412       .  A
C1585      H1592   1.084       .  S
C1586      C1587   1.412       .  A
C1587      C1588   1.392       .  A
C1587      C1594   1.520       .  S
C1588      C1589   1.407       .  A
C1588      H1593   1.080       .  S
C1589      C1590   1.429       .  A
C1590      C1591   1.516       .  S
C1591      F1595   1.385       .  S
C1591      F1596   1.382       .  S
C1591      F1597   1.373       .  S
C1594      F1598   1.383       .  S
C1594      F1599   1.383       .  S
C1594      F1600   1.384       .  S
C1601      C1602   1.396       .  A
C1601      C1606   1.397       .  A
C1601      H1608   1.085       .  S
C1602      C1603   1.410       .  A
C1603      C1604   1.404       .  A
C1603      C1610   1.515       .  S
C1604      C1605   1.406       .  A
C1604      H1609   1.079       .  S
C1605      C1606   1.419       .  A
C1606      C1607   1.514       .  S
C1607      F1611   1.384       .  S
C1607      F1612   1.383       .  S
C1607      F1613   1.381       .  S
C1610      F1614   1.382       .  S
C1610      F1615   1.383       .  S
C1610      F1616   1.384       .  S
C1617      C1618   1.403       .  A
C1617      C1622   1.394       .  A
C1617      H1624   1.085       .  S
C1618      C1619   1.431       .  A
C1619      C1620   1.418       .  A
C1619      C1626   1.518       .  S
C1620      C1621   1.405       .  A
C1620      H1625   1.080       .  S
C1621      C1622   1.422       .  A
C1622      C1623   1.517       .  S
C1623      F1627   1.384       .  S
C1623      F1628   1.382       .  S
C1623      F1629   1.368       .  S
C1626      F1630   1.382       .  S
C1626      F1631   1.383       .  S
C1626      F1632   1.385       .  S
C1633      C1634   1.405       .  A
C1633      C1638   1.399       .  A
C1633      H1640   1.080       .  S
C1634      C1635   1.431       .  A
C1635      C1636   1.417       .  A
C1635      C1642   1.516       .  S
C1636      C1637   1.403       .  A
C1636      H1641   1.084       .  S
C1637      C1638   1.419       .  A
C1638      C1639   1.521       .  S
C1639      F1643   1.384       .  S
C1639      F1644   1.384       .  S
C1639      F1645   1.383       .  S
C1642      F1646   1.375       .  S
C1642      F1647   1.383       .  S
C1642      F1648   1.384       .  S
C1649      C1650   1.408       .  A
C1649      C1654   1.402       .  A
C1649      H1656   1.077       .  S
C1650      C1651   1.427       .  A
C1651      C1652   1.405       .  A
C1651      C1658   1.519       .  S
C1652      C1653   1.399       .  A
C1652      H1657   1.083       .  S
C1653      C1654   1.410       .  A
C1654      C1655   1.521       .  S
C1655      F1659   1.385       .  S
C1655      F1660   1.383       .  S
C1655      F1661   1.381       .  S
C1658      F1662   1.375       .  S
C1658      F1663   1.376       .  S
C1658      F1664   1.385       .  S
C1665      C1666   1.412       .  A
C1665      C1670   1.417       .  A
C1665      H1672   1.081       .  S
C1666      C1667   1.426       .  A
C1667      C1668   1.400       .  A
C1667      C1674   1.514       .  S
C1668      C1669   1.399       .  A
C1668      H1673   1.085       .  S
C1669      C1670   1.418       .  A
C1670      C1671   1.517       .  S
C1671      F1675   1.385       .  S
C1671      F1676   1.381       .  S
C1671      F1677   1.383       .  S
C1674      F1678   1.385       .  S
C1674      F1679   1.369       .  S
C1674      F1680   1.383       .  S
C1681      C1682   1.413       .  A
C1681      C1686   1.398       .  A
C1681      H1688   1.080       .  S
C1682      C1683   1.429       .  A
C1683      C1684   1.405       .  A
C1683      C1690   1.515       .  S
C1684      C1685   1.397       .  A
C1684      H1689   1.085       .  S
C1685      C1686   1.405       .  A
C1686      C1687   1.519       .  S
C1687      F1691   1.385       .  S
C1687      F1692   1.383       .  S
C1687      F1693   1.382       .  S
C1690      F1694   1.385       .  S
C1690      F1695   1.366       .  S
C1690      F1696   1.383       .  S
C1697      C1698   1.405       .  A
C1697      C1702   1.394       .  A
C1697      H1704   1.080       .  S
C1698      C1699   1.422       .  A
C1699      C1700   1.407       .  A
C1699      C1706   1.518       .  S
C1700      C1701   1.401       .  A
C1700      H1705   1.083       .  S
C1701      C1702   1.413       .  A
C1702      C1703   1.519       .  S
C1703      F1707   1.384       .  S
C1703      F1708   1.383       .  S
C1703      F1709   1.383       .  S
C1706      F1710   1.374       .  S
C1706      F1711   1.378       .  S
C1706      F1712   1.385       .  S
C1713      C1714   1.407       .  A
C1713      C1718   1.402       .  A
C1713      H1720   1.078       .  S
C1714      C1715   1.427       .  A
C1715      C1716   1.406       .  A
C1715      C1722   1.518       .  S
C1716      C1717   1.400       .  A
C1716      H1721   1.085       .  S
C1717      C1718   1.412       .  A
C1718      C1719   1.521       .  S
C1719      F1723   1.385       .  S
C1719      F1724   1.383       .  S
C1719      F1725   1.381       .  S
C1722      F1726   1.385       .  S
C1722      F1727   1.373       .  S
C1722      F1728   1.383       .  S
C1729      C1730   1.406       .  A
C1729      C1734   1.392       .  A
C1729      H1736   1.082       .  S
C1730      C1731   1.425       .  A
C1731      C1732   1.409       .  A
C1731      C1738   1.518       .  S
C1732      C1733   1.403       .  A
C1732      H1737   1.081       .  S
C1733      C1734   1.416       .  A
C1734      C1735   1.520       .  S
C1735      F1739   1.384       .  S
C1735      F1740   1.383       .  S
C1735      F1741   1.383       .  S
C1738      F1742   1.373       .  S
C1738      F1743   1.381       .  S
C1738      F1744   1.385       .  S
C1745      C1746   1.411       .  A
C1745      C1750   1.407       .  A
C1745      H1752   1.078       .  S
C1746      C1747   1.425       .  A
C1747      C1748   1.401       .  A
C1747      C1754   1.514       .  S
C1748      C1749   1.396       .  A
C1748      H1753   1.085       .  S
C1749      C1750   1.410       .  A
C1750      C1751   1.517       .  S
C1751      F1755   1.385       .  S
C1751      F1756   1.383       .  S
C1751      F1757   1.382       .  S
C1754      F1758   1.373       .  S
C1754      F1759   1.383       .  S
C1754      F1760   1.384       .  S
C1761      C1762   1.411       .  A
C1761      C1766   1.407       .  A
C1761      H1768   1.078       .  S
C1762      C1763   1.423       .  A
C1763      C1764   1.401       .  A
C1763      C1770   1.513       .  S
C1764      C1765   1.396       .  A
C1764      H1769   1.085       .  S
C1765      C1766   1.410       .  A
C1766      C1767   1.517       .  S
C1767      F1771   1.385       .  S
C1767      F1772   1.382       .  S
C1767      F1773   1.383       .  S
C1770      F1774   1.383       .  S
C1770      F1775   1.375       .  S
C1770      F1776   1.384       .  S
C1777      C1778   1.404       .  A
C1777      C1782   1.409       .  A
C1777      H1784   1.083       .  S
C1778      C1779   1.414       .  A
C1779      C1780   1.392       .  A
C1779      C1786   1.521       .  S
C1780      C1781   1.408       .  A
C1780      H1785   1.081       .  S
C1781      C1782   1.428       .  A
C1782      C1783   1.514       .  S
C1783      F1787   1.383       .  S
C1783      F1788   1.369       .  S
C1783      F1789   1.384       .  S
C1786      F1790   1.383       .  S
C1786      F1791   1.383       .  S
C1786      F1792   1.383       .  S
C1793      C1794   1.410       .  A
C1793      C1798   1.405       .  A
C1793      H1800   1.078       .  S
C1794      C1795   1.428       .  A
C1795      C1796   1.407       .  A
C1795      C1802   1.516       .  S
C1796      C1797   1.398       .  A
C1796      H1801   1.085       .  S
C1797      C1798   1.411       .  A
C1798      C1799   1.519       .  S
C1799      F1803   1.385       .  S
C1799      F1804   1.382       .  S
C1799      F1805   1.383       .  S
C1802      F1806   1.382       .  S
C1802      F1807   1.372       .  S
C1802      F1808   1.385       .  S
C1809      C1810   1.404       .  A
C1809      C1814   1.395       .  A
C1809      H1816   1.079       .  S
C1810      C1811   1.425       .  A
C1811      C1812   1.409       .  A
C1811      C1818   1.515       .  S
C1812      C1813   1.400       .  A
C1812      H1817   1.082       .  S
C1813      C1814   1.416       .  A
C1814      C1815   1.519       .  S
C1815      F1819   1.384       .  S
C1815      F1820   1.383       .  S
C1815      F1821   1.383       .  S
C1818      F1822   1.379       .  S
C1818      F1823   1.375       .  S
C1818      F1824   1.385       .  S
C1825      C1826   1.406       .  A
C1825      C1830   1.407       .  A
C1825      H1832   1.080       .  S
C1826      C1827   1.419       .  A
C1827      C1828   1.397       .  A
C1827      C1834   1.514       .  S
C1828      C1829   1.396       .  A
C1828      H1833   1.085       .  S
C1829      C1830   1.412       .  A
C1830      C1831   1.516       .  S
C1831      F1835   1.384       .  S
C1831      F1836   1.382       .  S
C1831      F1837   1.383       .  S
C1834      F1838   1.383       .  S
C1834      F1839   1.379       .  S
C1834      F1840   1.384       .  S
C1841      C1842   1.409       .  A
C1841      C1846   1.416       .  A
C1841      H1848   1.080       .  S
C1842      C1843   1.424       .  A
C1843      C1844   1.396       .  A
C1843      C1850   1.519       .  S
C1844      C1845   1.402       .  A
C1844      H1849   1.085       .  S
C1845      C1846   1.421       .  A
C1846      C1847   1.518       .  S
C1847      F1851   1.385       .  S
C1847      F1852   1.383       .  S
C1847      F1853   1.381       .  S
C1850      F1854   1.383       .  S
C1850      F1855   1.371       .  S
C1850      F1856   1.385       .  S
C1857      C1858   1.411       .  A
C1857      C1862   1.402       .  A
C1857      H1864   1.081       .  S
C1858      C1859   1.430       .  A
C1859      C1860   1.407       .  A
C1859      C1866   1.516       .  S
C1860      C1861   1.394       .  A
C1860      H1865   1.083       .  S
C1861      C1862   1.407       .  A
C1862      C1863   1.518       .  S
C1863      F1867   1.385       .  S
C1863      F1868   1.383       .  S
C1863      F1869   1.383       .  S
C1866      F1870   1.379       .  S
C1866      F1871   1.371       .  S
C1866      F1872   1.385       .  S
C1873      C1874   1.408       .  A
C1873      C1878   1.409       .  A
C1873      H1880   1.078       .  S
C1874      C1875   1.420       .  A
C1875      C1876   1.407       .  A
C1875      C1882   1.515       .  S
C1876      C1877   1.404       .  A
C1876      H1881   1.084       .  S
C1877      C1878   1.418       .  A
C1878      C1879   1.520       .  S
C1879      F1883   1.385       .  S
C1879      F1884   1.383       .  S
C1879      F1885   1.381       .  S
C1882      F1886   1.380       .  S
C1882      F1887   1.378       .  S
C1882      F1888   1.385       .  S
C1889      C1890   1.415       .  A
C1889      C1894   1.420       .  A
C1889      H1896   1.082       .  S
C1890      C1891   1.431       .  A
C1891      C1892   1.398       .  A
C1891      C1898   1.515       .  S
C1892      C1893   1.396       .  A
C1892      H1897   1.086       .  S
C1893      C1894   1.419       .  A
C1894      C1895   1.517       .  S
C1895      F1899   1.384       .  S
C1895      F1900   1.381       .  S
C1895      F1901   1.383       .  S
C1898      F1902   1.384       .  S
C1898      F1903   1.360       .  S
C1898      F1904   1.384       .  S
C1905      C1906   1.413       .  A
C1905      C1910   1.399       .  A
C1905      H1912   1.082       .  S
C1906      C1907   1.435       .  A
C1907      C1908   1.411       .  A
C1907      C1914   1.516       .  S
C1908      C1909   1.397       .  A
C1908      H1913   1.085       .  S
C1909      C1910   1.410       .  A
C1910      C1911   1.519       .  S
C1911      F1915   1.383       .  S
C1911      F1916   1.382       .  S
C1911      F1917   1.384       .  S
C1914      F1918   1.385       .  S
C1914      F1919   1.368       .  S
C1914      F1920   1.383       .  S
C1921      C1922   1.401       .  A
C1921      C1926   1.392       .  A
C1921      H1928   1.082       .  S
C1922      C1923   1.426       .  A
C1923      C1924   1.415       .  A
C1923      C1930   1.517       .  S
C1924      C1925   1.406       .  A
C1924      H1929   1.084       .  S
C1925      C1926   1.416       .  A
C1926      C1927   1.521       .  S
C1927      F1931   1.383       .  S
C1927      F1932   1.383       .  S
C1927      F1933   1.383       .  S
C1930      F1934   1.377       .  S
C1930      F1935   1.383       .  S
C1930      F1936   1.384       .  S
C1937      C1938   1.413       .  A
C1937      C1942   1.413       .  A
C1937      H1944   1.078       .  S
C1938      C1939   1.428       .  A
C1939      C1940   1.410       .  A
C1939      C1946   1.511       .  S
C1940      C1941   1.399       .  A
C1940      H1945   1.085       .  S
C1941      C1942   1.411       .  A
C1942      C1943   1.517       .  S
C1943      F1947   1.384       .  S
C1943      F1948   1.383       .  S
C1943      F1949   1.383       .  S
C1946      F1950   1.384       .  S
C1946      F1951   1.368       .  S
C1946      F1952   1.383       .  S
C1953      C1954   1.415       .  A
C1953      C1958   1.397       .  A
C1953      H1960   1.075       .  S
C1954      C1955   1.434       .  A
C1955      C1956   1.415       .  A
C1955      C1962   1.515       .  S
C1956      C1957   1.400       .  A
C1956      H1961   1.085       .  S
C1957      C1958   1.407       .  A
C1958      C1959   1.521       .  S
C1959      F1963   1.384       .  S
C1959      F1964   1.382       .  S
C1959      F1965   1.384       .  S
C1962      F1966   1.383       .  S
C1962      F1967   1.366       .  S
C1962      F1968   1.385       .  S
C1969      C1970   1.406       .  A
C1969      C1974   1.407       .  A
C1969      H1976   1.085       .  S
C1970      C1971   1.420       .  A
C1971      C1972   1.414       .  A
C1971      C1978   1.514       .  S
C1972      C1973   1.411       .  A
C1972      H1977   1.081       .  S
C1973      C1974   1.426       .  A
C1974      C1975   1.515       .  S
C1975      F1979   1.385       .  S
C1975      F1980   1.370       .  S
C1975      F1981   1.382       .  S
C1978      F1982   1.383       .  S
C1978      F1983   1.381       .  S
C1978      F1984   1.385       .  S
C1985      C1986   1.401       .  A
C1985      C1990   1.400       .  A
C1985      H1992   1.086       .  S
C1986      C1987   1.415       .  A
C1987      C1988   1.407       .  A
C1987      C1994   1.519       .  S
C1988      C1989   1.407       .  A
C1988      H1993   1.077       .  S
C1989      C1990   1.422       .  A
C1990      C1991   1.513       .  S
C1991      F1995   1.383       .  S
C1991      F1996   1.369       .  S
C1991      F1997   1.384       .  S
C1994      F1998   1.381       .  S
C1994      F1999   1.383       .  S
C1994      F2000   1.385       .  S
C2001      C2002   1.411       .  A
C2001      C2006   1.405       .  A
C2001      H2008   1.076       .  S
C2002      C2003   1.429       .  A
C2003      C2004   1.416       .  A
C2003      C2010   1.516       .  S
C2004      C2005   1.402       .  A
C2004      H2009   1.085       .  S
C2005      C2006   1.410       .  A
C2006      C2007   1.520       .  S
C2007      F2011   1.385       .  S
C2007      F2012   1.383       .  S
C2007      F2013   1.381       .  S
C2010      F2014   1.383       .  S
C2010      F2015   1.375       .  S
C2010      F2016   1.384       .  S
C2017      C2018   1.411       .  A
C2017      C2022   1.414       .  A
C2017      H2024   1.081       .  S
C2018      C2019   1.424       .  A
C2019      C2020   1.401       .  A
C2019      C2026   1.511       .  S
C2020      C2021   1.396       .  A
C2020      H2025   1.086       .  S
C2021      C2022   1.414       .  A
C2022      C2023   1.515       .  S
C2023      F2027   1.384       .  S
C2023      F2028   1.382       .  S
C2023      F2029   1.384       .  S
C2026      F2030   1.384       .  S
C2026      F2031   1.368       .  S
C2026      F2032   1.383       .  S
C2033      C2034   1.410       .  A
C2033      C2038   1.407       .  A
C2033      H2040   1.079       .  S
C2034      C2035   1.425       .  A
C2035      C2036   1.407       .  A
C2035      C2042   1.513       .  S
C2036      C2037   1.402       .  A
C2036      H2041   1.085       .  S
C2037      C2038   1.414       .  A
C2038      C2039   1.520       .  S
C2039      F2043   1.385       .  S
C2039      F2044   1.383       .  S
C2039      F2045   1.381       .  S
C2042      F2046   1.382       .  S
C2042      F2047   1.370       .  S
C2042      F2048   1.384       .  S
C2049      C2050   1.413       .  A
C2049      C2054   1.419       .  A
C2049      H2056   1.078       .  S
C2050      C2051   1.413       .  A
C2051      C2052   1.384       .  A
C2051      C2058   1.519       .  S
C2052      C2053   1.410       .  A
C2052      H2057   1.083       .  S
C2053      C2054   1.427       .  A
C2054      C2055   1.515       .  S
C2055      F2059   1.386       .  S
C2055      F2060   1.383       .  S
C2055      F2061   1.382       .  S
C2058      F2062   1.372       .  S
C2058      F2063   1.376       .  S
C2058      F2064   1.384       .  S
C2065      C2066   1.406       .  A
C2065      C2070   1.416       .  A
C2065      H2072   1.079       .  S
C2066      C2067   1.421       .  A
C2067      C2068   1.406       .  A
C2067      C2074   1.514       .  S
C2068      C2069   1.400       .  A
C2068      H2073   1.084       .  S
C2069      C2070   1.422       .  A
C2070      C2071   1.519       .  S
C2071      F2075   1.384       .  S
C2071      F2076   1.382       .  S
C2071      F2077   1.383       .  S
C2074      F2078   1.383       .  S
C2074      F2079   1.383       .  S
C2074      F2080   1.383       .  S
C2081      C2082   1.408       .  A
C2081      C2086   1.413       .  A
C2081      H2088   1.073       .  S
C2082      C2083   1.422       .  A
C2083      C2084   1.409       .  A
C2083      C2090   1.510       .  S
C2084      C2085   1.399       .  A
C2084      H2089   1.084       .  S
C2085      C2086   1.418       .  A
C2086      C2087   1.518       .  S
C2087      F2091   1.385       .  S
C2087      F2092   1.383       .  S
C2087      F2093   1.382       .  S
C2090      F2094   1.382       .  S
C2090      F2095   1.380       .  S
C2090      F2096   1.384       .  S
C2097      C2098   1.416       .  A
C2097      C2102   1.416       .  A
C2097      H2104   1.081       .  S
C2098      C2099   1.438       .  A
C2099      C2100   1.386       .  A
C2099      C2106   1.528       .  S
C2100      C2101   1.391       .  A
C2100      H2105   1.083       .  S
C2101      C2102   1.422       .  A
C2102      C2103   1.514       .  S
C2103      F2107   1.384       .  S
C2103      F2108   1.383       .  S
C2103      F2109   1.374       .  S
C2106      F2110   1.381       .  S
C2106      F2111   1.381       .  S
C2106      F2112   1.382       .  S
C2113      C2114   1.410       .  A
C2113      C2118   1.396       .  A
C2113      H2120   1.079       .  S
C2114      C2115   1.429       .  A
C2115      C2116   1.408       .  A
C2115      C2122   1.517       .  S
C2116      C2117   1.399       .  A
C2116      H2121   1.085       .  S
C2117      C2118   1.409       .  A
C2118      C2119   1.523       .  S
C2119      F2123   1.385       .  S
C2119      F2124   1.382       .  S
C2119      F2125   1.383       .  S
C2122      F2126   1.383       .  S
C2122      F2127   1.371       .  S
C2122      F2128   1.385       .  S
C2129      C2130   1.407       .  A
C2129      C2134   1.412       .  A
C2129      H2136   1.082       .  S
C2130      C2131   1.423       .  A
C2131      C2132   1.402       .  A
C2131      C2138   1.518       .  S
C2132      C2133   1.400       .  A
C2132      H2137   1.084       .  S
C2133      C2134   1.420       .  A
C2134      C2135   1.519       .  S
C2135      F2139   1.385       .  S
C2135      F2140   1.383       .  S
C2135      F2141   1.381       .  S
C2138      F2142   1.378       .  S
C2138      F2143   1.378       .  S
C2138      F2144   1.385       .  S
C2145      C2146   1.406       .  A
C2145      C2150   1.410       .  A
C2145      H2152   1.069       .  S
C2146      C2147   1.434       .  A
C2147      C2148   1.404       .  A
C2147      C2154   1.523       .  S
C2148      C2149   1.395       .  A
C2148      H2153   1.083       .  S
C2149      C2150   1.413       .  A
C2150      C2151   1.519       .  S
C2151      F2155   1.384       .  S
C2151      F2156   1.381       .  S
C2151      F2157   1.383       .  S
C2154      F2158   1.377       .  S
C2154      F2159   1.372       .  S
C2154      F2160   1.385       .  S
C2161      C2162   1.395       .  A
C2161      C2166   1.398       .  A
C2161      H2168   1.085       .  S
C2162      C2163   1.412       .  A
C2163      C2164   1.408       .  A
C2163      C2170   1.516       .  S
C2164      C2165   1.407       .  A
C2164      H2169   1.076       .  S
C2165      C2166   1.422       .  A
C2166      C2167   1.510       .  S
C2167      F2171   1.384       .  S
C2167      F2172   1.373       .  S
C2167      F2173   1.382       .  S
C2170      F2174   1.383       .  S
C2170      F2175   1.382       .  S
C2170      F2176   1.384       .  S
C2177      C2178   1.403       .  A
C2177      C2182   1.414       .  A
C2177      H2184   1.080       .  S
C2178      C2179   1.422       .  A
C2179      C2180   1.395       .  A
C2179      C2186   1.513       .  S
C2180      C2181   1.402       .  A
C2180      H2185   1.086       .  S
C2181      C2182   1.423       .  A
C2182      C2183   1.518       .  S
C2183      F2187   1.385       .  S
C2183      F2188   1.381       .  S
C2183      F2189   1.383       .  S
C2186      F2190   1.385       .  S
C2186      F2191   1.366       .  S
C2186      F2192   1.383       .  S
C2193      C2194   1.407       .  A
C2193      C2198   1.408       .  A
C2193      H2200   1.068       .  S
C2194      C2195   1.438       .  A
C2195      C2196   1.410       .  A
C2195      C2202   1.522       .  S
C2196      C2197   1.391       .  A
C2196      H2201   1.083       .  S
C2197      C2198   1.411       .  A
C2198      C2199   1.518       .  S
C2199      F2203   1.385       .  S
C2199      F2204   1.382       .  S
C2199      F2205   1.382       .  S
C2202      F2206   1.373       .  S
C2202      F2207   1.371       .  S
C2202      F2208   1.385       .  S
C2209      C2210   1.400       .  A
C2209      C2214   1.405       .  A
C2209      H2216   1.083       .  S
C2210      C2211   1.417       .  A
C2211      C2212   1.406       .  A
C2211      C2218   1.521       .  S
C2212      C2213   1.407       .  A
C2212      H2217   1.083       .  S
C2213      C2214   1.427       .  A
C2214      C2215   1.518       .  S
C2215      F2219   1.385       .  S
C2215      F2220   1.377       .  S
C2215      F2221   1.380       .  S
C2218      F2222   1.381       .  S
C2218      F2223   1.383       .  S
C2218      F2224   1.385       .  S
C2225      C2226   1.409       .  A
C2225      C2230   1.425       .  A
C2225      H2232   1.083       .  S
C2226      C2227   1.408       .  A
C2227      C2228   1.378       .  A
C2227      C2234   1.520       .  S
C2228      C2229   1.413       .  A
C2228      H2233   1.076       .  S
C2229      C2230   1.436       .  A
C2230      C2231   1.511       .  S
C2231      F2235   1.385       .  S
C2231      F2236   1.382       .  S
C2231      F2237   1.380       .  S
C2234      F2238   1.380       .  S
C2234      F2239   1.383       .  S
C2234      F2240   1.381       .  S
C2241      C2242   1.403       .  A
C2241      C2246   1.413       .  A
C2241      H2248   1.084       .  S
C2242      C2243   1.407       .  A
C2243      C2244   1.401       .  A
C2243      C2250   1.518       .  S
C2244      C2245   1.414       .  A
C2244      H2249   1.084       .  S
C2245      C2246   1.429       .  A
C2246      C2247   1.517       .  S
C2247      F2251   1.383       .  S
C2247      F2252   1.375       .  S
C2247      F2253   1.385       .  S
C2250      F2254   1.383       .  S
C2250      F2255   1.382       .  S
C2250      F2256   1.384       .  S
C2257      C2258   1.412       .  A
C2257      C2262   1.409       .  A
C2257      H2264   1.080       .  S
C2258      C2259   1.414       .  A
C2259      C2260   1.386       .  A
C2259      C2266   1.514       .  S
C2260      C2261   1.411       .  A
C2260      H2265   1.081       .  S
C2261      C2262   1.424       .  A
C2262      C2263   1.517       .  S
C2263      F2267   1.386       .  S
C2263      F2268   1.382       .  S
C2263      F2269   1.383       .  S
C2266      F2270   1.374       .  S
C2266      F2271   1.385       .  S
C2266      F2272   1.380       .  S
C2273      C2274   1.407       .  A
C2273      C2278   1.411       .  A
C2273      H2280   1.076       .  S
C2274      C2275   1.427       .  A
C2275      C2276   1.393       .  A
C2275      C2282   1.512       .  S
C2276      C2277   1.395       .  A
C2276      H2281   1.086       .  S
C2277      C2278   1.418       .  A
C2278      C2279   1.519       .  S
C2279      F2283   1.385       .  S
C2279      F2284   1.380       .  S
C2279      F2285   1.383       .  S
C2282      F2286   1.385       .  S
C2282      F2287   1.363       .  S
C2282      F2288   1.382       .  S
C2289      C2290   1.394       .  A
C2289      C2294   1.404       .  A
C2289      H2296   1.085       .  S
C2290      C2291   1.416       .  A
C2291      C2292   1.410       .  A
C2291      C2298   1.518       .  S
C2292      C2293   1.407       .  A
C2292      H2297   1.075       .  S
C2293      C2294   1.429       .  A
C2294      C2295   1.510       .  S
C2295      F2299   1.383       .  S
C2295      F2300   1.384       .  S
C2295      F2301   1.367       .  S
C2298      F2302   1.382       .  S
C2298      F2303   1.383       .  S
C2298      F2304   1.384       .  S
C2305      C2306   1.397       .  A
C2305      C2310   1.399       .  A
C2305      H2312   1.083       .  S
C2306      C2307   1.422       .  A
C2307      C2308   1.415       .  A
C2307      C2314   1.519       .  S
C2308      C2309   1.406       .  A
C2308      H2313   1.079       .  S
C2309      C2310   1.427       .  A
C2310      C2311   1.519       .  S
C2311      F2315   1.385       .  S
C2311      F2316   1.379       .  S
C2311      F2317   1.374       .  S
C2314      F2318   1.381       .  S
C2314      F2319   1.383       .  S
C2314      F2320   1.385       .  S
C2321      C2322   1.413       .  A
C2321      C2326   1.408       .  A
C2321      H2328   1.071       .  S
C2322      C2323   1.434       .  A
C2323      C2324   1.400       .  A
C2323      C2330   1.512       .  S
C2324      C2325   1.390       .  A
C2324      H2329   1.086       .  S
C2325      C2326   1.407       .  A
C2326      C2327   1.516       .  S
C2327      F2331   1.384       .  S
C2327      F2332   1.383       .  S
C2327      F2333   1.382       .  S
C2330      F2334   1.366       .  S
C2330      F2335   1.382       .  S
C2330      F2336   1.385       .  S
C2337      C2338   1.408       .  A
C2337      C2342   1.404       .  A
C2337      H2344   1.073       .  S
C2338      C2339   1.428       .  A
C2339      C2340   1.403       .  A
C2339      C2346   1.512       .  S
C2340      C2341   1.396       .  A
C2340      H2345   1.086       .  S
C2341      C2342   1.410       .  A
C2342      C2343   1.520       .  S
C2343      F2347   1.385       .  S
C2343      F2348   1.382       .  S
C2343      F2349   1.383       .  S
C2346      F2350   1.383       .  S
C2346      F2351   1.364       .  S
C2346      F2352   1.385       .  S
C2353      C2354   1.401       .  A
C2353      C2358   1.411       .  A
C2353      H2360   1.083       .  S
C2354      C2355   1.414       .  A
C2355      C2356   1.398       .  A
C2355      C2362   1.519       .  S
C2356      C2357   1.405       .  A
C2356      H2361   1.078       .  S
C2357      C2358   1.425       .  A
C2358      C2359   1.519       .  S
C2359      F2363   1.385       .  S
C2359      F2364   1.379       .  S
C2359      F2365   1.374       .  S
C2362      F2366   1.383       .  S
C2362      F2367   1.383       .  S
C2362      F2368   1.384       .  S
C2369      C2370   1.410       .  A
C2369      C2374   1.413       .  A
C2369      H2376   1.081       .  S
C2370      C2371   1.426       .  A
C2371      C2372   1.396       .  A
C2371      C2378   1.514       .  S
C2372      C2373   1.393       .  A
C2372      H2377   1.086       .  S
C2373      C2374   1.415       .  A
C2374      C2375   1.517       .  S
C2375      F2379   1.385       .  S
C2375      F2380   1.383       .  S
C2375      F2381   1.382       .  S
C2378      F2382   1.382       .  S
C2378      F2383   1.373       .  S
C2378      F2384   1.385       .  S
C2385      C2386   1.406       .  A
C2385      C2390   1.396       .  A
C2385      H2392   1.085       .  S
C2386      C2387   1.429       .  A
C2387      C2388   1.416       .  A
C2387      C2394   1.518       .  S
C2388      C2389   1.407       .  A
C2388      H2393   1.080       .  S
C2389      C2390   1.424       .  A
C2390      C2391   1.522       .  S
C2391      F2395   1.384       .  S
C2391      F2396   1.370       .  S
C2391      F2397   1.384       .  S
C2394      F2398   1.383       .  S
C2394      F2399   1.382       .  S
C2394      F2400   1.385       .  S
