geometry optimzed in LAMMPS
_audit_creation_date              2020-11-30 
_audit_creation_method            'lammps2cif' 
_symmetry_space_group_name_H-M    'P1' 
_symmetry_Int_Tables_number       1 
_symmetry_cell_setting            triclinic 
loop_ 
_symmetry_equiv_pos_as_xyz 
  x,y,z 
_cell_length_a                    40.07965035 
_cell_length_b                    40.402206423020594 
_cell_length_c                    39.16593145099946 
_cell_angle_alpha                 90.16698518093149 
_cell_angle_beta                  89.76812076470549 
_cell_angle_gamma                 91.4702200558301 
loop_ 
_atom_site_label 
_atom_site_type_symbol 
_atom_site_fract_x 
_atom_site_fract_y 
_atom_site_fract_z 
_atom_site_charge 
O1          O  0.78953853  0.74940173  0.68852340    -0.78800
O2          O  0.77131330  0.73318229  0.83202935    -0.63500
O3          O  0.74696025  0.73615369  0.74003821    -1.10100
C4          C  0.73736847  0.84982733  0.76136048     1.08100
O5          O  0.72430440  0.75867111  0.84417173    -0.76700
O6          O  0.68532212  0.78264075  0.79217491    -0.64300
Ni7        Ni  0.77088344  0.71030305  0.70885687     1.34900
C8          C  0.67852576  0.78550915  0.76064316     0.86800
O9          O  0.76367837  0.68500795  0.78520986    -0.77200
O10         O  0.75361070  0.67093157  0.73061908    -0.87500
C11         C  0.74909819  0.74134779  0.85328674     0.86400
O12         O  0.81262794  0.70552603  0.73143936    -0.65700
O13         O  0.72478507  0.83896292  0.78950517    -0.85000
C14         C  0.82564897  0.72567014  0.75254350     0.87200
C15         C  0.75619127  0.66343464  0.76221410     1.08800
H16         H  0.77767648  0.79037159  0.79073806     0.40600
O17         O  0.75637876  0.77996869  0.78527154    -1.07700
O18         O  0.70144656  0.78647715  0.73789462    -0.64300
Ni19       Ni  0.74986303  0.78366813  0.73790351     1.26300
O20         O  0.80763809  0.74028000  0.77456118    -0.64600
O21         O  0.75171218  0.83106639  0.73960135    -0.76800
C22         C  0.77181311  0.76994147  0.67307548     0.86600
O23         O  0.74872741  0.78466506  0.68906088    -0.64000
Ni24       Ni  0.72489218  0.79792709  0.81533129     1.27400
Ni25       Ni  0.76046821  0.73310534  0.78557147     1.26100
H26         H  0.72378352  0.72908448  0.73877616     0.41100
O27         O  0.34107065  0.74992157  0.77487354    -0.78800
O28         O  0.18359167  0.73077907  0.76967349    -0.63500
O29         O  0.27765231  0.72917410  0.75063532    -1.10100
C30         C  0.26628887  0.84636667  0.73941398     1.08100
O31         O  0.17943018  0.76583735  0.72677627    -0.76700
O32         O  0.22420533  0.80115985  0.69206856    -0.64300
Ni33       Ni  0.30948449  0.71234752  0.78073377     1.34900
C34         C  0.24280205  0.77987090  0.67847141     0.86800
O35         O  0.22989896  0.68068516  0.76607798    -0.77200
O36         O  0.28154665  0.67287943  0.78724815    -0.87500
C37         C  0.16568456  0.74639268  0.74823689     0.86400
O38         O  0.29203251  0.73134010  0.82167073    -0.65700
O39         O  0.23553849  0.84174453  0.74730423    -0.85000
C40         C  0.26215686  0.72978484  0.83275880     0.87200
C41         C  0.25223959  0.66207196  0.77899639     1.08800
H42         H  0.24035250  0.78450122  0.78343190     0.40600
O43         O  0.23821516  0.77599089  0.76044408    -1.07700
O44         O  0.26525398  0.76544048  0.69549726    -0.64300
Ni45       Ni  0.28159607  0.77521361  0.74130681     1.26300
O46         O  0.23709425  0.72867239  0.81260758    -0.64600
O47         O  0.28535310  0.82244734  0.73213996    -0.76800
C48         C  0.34843787  0.76632088  0.74771872     0.86600
O49         O  0.32615459  0.77178333  0.72562647    -0.64000
Ni50       Ni  0.20763683  0.80318563  0.73790197     1.27400
Ni51       Ni  0.23170140  0.72852901  0.76299558     1.26100
H52         H  0.27978322  0.71691495  0.72953795     0.41100
N53         N  0.79372273  0.75785985  0.50378524    -0.01400
C54         C  0.77179174  0.76599329  0.52881525     0.01200
C55         C  0.73937382  0.76445177  0.51687905    -0.21700
C56         C  0.74119562  0.75563700  0.48329471    -0.21900
C57         C  0.77459812  0.75192359  0.47593028     0.01100
H58         H  0.71677669  0.76917451  0.53111326     0.14900
H59         H  0.72055913  0.75389994  0.46557490     0.14900
N60         N  0.99557882  0.74599803  0.73244207    -0.01400
C61         C  0.02173131  0.74190780  0.75422518     0.01200
C62         C  0.01111724  0.74328562  0.78773622    -0.21700
C63         C  0.97749210  0.74794060  0.78705733    -0.21900
C64         C  0.96823517  0.74921918  0.75313558     0.01100
H65         H  0.02633903  0.74117457  0.81035428     0.14900
H66         H  0.96112196  0.74872382  0.80908249     0.14900
N67         N  0.99736435  0.68888691  0.31276318    -0.01400
C68         C  0.02323038  0.67519130  0.29560912     0.01200
C69         C  0.01234116  0.64873858  0.27586117    -0.21700
C70         C  0.97852665  0.64632981  0.28010685    -0.21900
C71         C  0.96972235  0.67160107  0.30197210     0.01100
H72         H  0.02681706  0.63487476  0.25763416     0.14900
H73         H  0.96171907  0.63085280  0.26504457     0.14900
O74         O  0.00248518  0.76207596  0.46572142    -0.72300
O75         O  0.00183784  0.77354087  0.56517270    -0.72400
O76         O  0.04971868  0.76801915  0.51559691    -0.72400
O77         O  0.95469172  0.77021805  0.51472387    -0.72500
O78         O  0.95086485  0.71559377  0.52092790    -0.72400
O79         O  0.04834073  0.71337321  0.52208923    -0.72400
O80         O  0.99927732  0.71875515  0.57030679    -0.72400
O81         O  0.00012762  0.70758667  0.47384580    -0.72400
Ni82       Ni  0.00224783  0.77039864  0.51512115     1.25400
Ni83       Ni  0.99948517  0.71194919  0.52210679     1.25400
C84         C  0.00194113  0.73230578  0.45365229     0.89800
C85         C  0.00084663  0.74742829  0.58413186     0.89800
C86         C  0.06509316  0.74087078  0.51866581     0.89800
C87         C  0.93678037  0.74372514  0.51714891     0.90000
N88         N  0.20952801  0.75129537  0.50822890    -0.01400
C89         C  0.23205219  0.75237886  0.53438815     0.01200
C90         C  0.26416327  0.75031481  0.52192918    -0.21700
C91         C  0.26181266  0.74789202  0.48718270    -0.21900
C92         C  0.22829040  0.74853437  0.47915686     0.01100
H93         H  0.28699074  0.75150611  0.53660663     0.14900
H94         H  0.28252513  0.74719739  0.46939226     0.14900
O95         O  0.16031917  0.76026586  0.28313790    -0.78800
O96         O  0.31155224  0.76565583  0.28611482    -0.63500
O97         O  0.22321894  0.76898871  0.25256139    -1.10100
C98         C  0.23747205  0.65460216  0.23751367     1.08100
O99         O  0.32651244  0.74110298  0.23811073    -0.76700
O100        O  0.27901997  0.71803923  0.19171897    -0.64300
Ni101      Ni  0.19149028  0.79628010  0.27470036     1.34900
C102        C  0.24920627  0.71972527  0.18088031     0.86800
O103        O  0.27145600  0.81558087  0.27608585    -0.77200
O104        O  0.22012449  0.83449177  0.26703372    -0.87500
C105        C  0.33405816  0.75788805  0.26492539     0.86400
O106        O  0.20596016  0.79225580  0.32112664    -0.65700
O107        O  0.26777292  0.66332464  0.23082330    -0.85000
C108        C  0.22752422  0.77401242  0.33471280     0.87200
C109        C  0.25167116  0.83874308  0.26937669     1.08800
H110        H  0.26443681  0.71121059  0.28534281     0.40600
O111        O  0.26304479  0.72232706  0.26358662    -1.07700
O112        O  0.22423086  0.72176023  0.20114385    -0.64300
Ni113      Ni  0.21770348  0.72176224  0.25053141     1.26300
O114        O  0.25159643  0.76193325  0.31756653    -0.64600
O115        O  0.21535277  0.67450735  0.24817322    -0.76800
C116        C  0.15158615  0.73538177  0.26496340     0.86600
O117        O  0.17081528  0.72289913  0.24268891    -0.64000
Ni118      Ni  0.29539113  0.70313830  0.23483729     1.27400
Ni119      Ni  0.26702644  0.76857514  0.27070622     1.26100
H120        H  0.22516486  0.77714442  0.22945566     0.41100
O121        O  0.66512089  0.73158841  0.24840818    -0.78800
O122        O  0.81947824  0.70401874  0.25126955    -0.63500
O123        O  0.72716214  0.71001396  0.27196190    -1.10100
C124        C  0.74717697  0.82618692  0.27164829     1.08100
O125        O  0.83617308  0.75023445  0.27869315    -0.76700
O126        O  0.79376538  0.78332416  0.31705787    -0.64300
Ni127      Ni  0.69379420  0.69369747  0.24228560     1.34900
C128        C  0.77307445  0.76527853  0.33376303     0.86800
O129        O  0.76925245  0.65870854  0.26039309    -0.77200
O130        O  0.71875836  0.65425590  0.23519519    -0.87500
C131        C  0.84135030  0.72130709  0.26735398     0.86400
O132        O  0.71272190  0.71298849  0.20190808    -0.65700
O133        O  0.77691057  0.82140007  0.26158922    -0.85000
C134        C  0.74238460  0.70942588  0.19118557     0.87200
C135        C  0.74627887  0.64192008  0.24481620     1.08800
H136        H  0.76746957  0.75930845  0.23164394     0.40600
O137        O  0.77072932  0.75382461  0.25532634    -1.07700
O138        O  0.74706169  0.75169355  0.32062170    -0.64300
Ni139      Ni  0.72802999  0.75625747  0.27613064     1.26300
O140        O  0.76634907  0.70302061  0.21095971    -0.64600
O141        O  0.72767113  0.80284208  0.28078073    -0.76800
C142        C  0.66083209  0.74978104  0.27477893     0.86600
O143        O  0.68466480  0.75587864  0.29514699    -0.64000
Ni144      Ni  0.80490429  0.78415457  0.26965890     1.27400
Ni145      Ni  0.77243013  0.70625320  0.25929338     1.26100
H146        H  0.72367361  0.69986955  0.29401970     0.41100
N147        N  0.76588643  0.70619297  0.02122788    -0.01400
C148        C  0.77221615  0.72502236  0.04923135     0.01200
C149        C  0.78059089  0.75723530  0.04028074    -0.21700
C150        C  0.77927488  0.75852416  0.00543574    -0.21900
C151        C  0.77024867  0.72705893  0.99454287     0.01100
H152        H  0.78533589  0.77791416  0.05736671     0.14900
H153        H  0.78295485  0.78033537  0.98974718     0.14900
N154        N  0.76239986  0.49715442  0.79332352    -0.01400
C155        C  0.75994242  0.52314296  0.77132988     0.01200
C156        C  0.76781183  0.51327073  0.73850263    -0.21700
C157        C  0.77521207  0.48044208  0.73997023    -0.21900
C158        C  0.77167991  0.47090848  0.77364040     0.01100
H159        H  0.76832742  0.52851799  0.71581499     0.14900
H160        H  0.78180326  0.46489048  0.71855683     0.14900
N161        N  0.70033104  0.29926168  0.00214651    -0.01400
C162        C  0.68963668  0.27932263  0.97633720     0.01200
C163        C  0.66886149  0.25422710  0.98866356    -0.21700
C164        C  0.66714777  0.25858163  0.02325770    -0.21900
C165        C  0.68714361  0.28593014  0.03098851     0.01100
H166        H  0.65904351  0.23296489  0.97477104     0.14900
H167        H  0.65645441  0.24095213  0.04124713     0.14900
O168        O  0.71025063  0.50070782  0.05227989    -0.72300
O169        O  0.71952914  0.50685332  0.95423378    -0.72400
O170        O  0.70798947  0.45747805  0.99926561    -0.72400
O171        O  0.72101081  0.55122871  0.00695562    -0.72500
O172        O  0.77587813  0.54533908  0.01126603    -0.72400
O173        O  0.76264493  0.45056759  0.00501053    -0.72400
O174        O  0.77411534  0.49974921  0.95923821    -0.72400
O175        O  0.76517992  0.49529484  0.05683113    -0.72400
Ni176      Ni  0.71280393  0.50444318  0.00305416     1.25400
Ni177      Ni  0.77142221  0.49763303  0.00823350     1.25400
C178        C  0.73622858  0.49631806  0.07072256     0.89800
C179        C  0.74831951  0.50309644  0.94042036     0.89800
C180        C  0.73298570  0.43850160  0.00083438     0.89800
C181        C  0.75039358  0.56397865  0.01034947     0.90000
N182        N  0.72280171  0.47861734  0.21670572    -0.01400
C183        C  0.72642019  0.50348604  0.23999176     0.01200
C184        C  0.71501830  0.49340017  0.27169787    -0.21700
C185        C  0.70447184  0.46115929  0.26821557    -0.21900
C186        C  0.70982789  0.45249188  0.23451218     0.01100
H187        H  0.71499463  0.50781315  0.29503740     0.14900
H188        H  0.69650428  0.44486625  0.28874815     0.14900
O189        O  0.73591598  0.14775863  0.22509854    -0.78800
O190        O  0.71045737  0.29396392  0.24533445    -0.63500
O191        O  0.75524081  0.21496191  0.22689999    -1.10100
C192        C  0.76572576  0.21325827  0.34627141     1.08100
O193        O  0.75442920  0.31230897  0.27436219    -0.76700
O194        O  0.80444988  0.27105417  0.29096366    -0.64300
Ni195      Ni  0.73860882  0.18427625  0.19366482     1.34900
C196        C  0.81897360  0.24493747  0.28182633     0.86800
O197        O  0.72516355  0.26406927  0.18807874    -0.77200
O198        O  0.73986204  0.21844877  0.15957548    -0.87500
C199        C  0.72947854  0.31748774  0.25502581     0.86400
O200        O  0.69179839  0.18996662  0.20056801    -0.65700
O201        O  0.76730161  0.24485411  0.34312901    -0.85000
C202        C  0.67553194  0.20812943  0.22083271     0.87200
C203        C  0.73081771  0.24850970  0.16059642     1.08800
H204        H  0.71650681  0.24042079  0.29225963     0.40600
O205        O  0.73792631  0.24441227  0.28140218    -1.07700
O206        O  0.80328041  0.21787211  0.27567413    -0.64300
Ni207      Ni  0.75739324  0.20303014  0.27389736     1.26300
O208        O  0.68872771  0.23198690  0.23764755    -0.64600
O209        O  0.75929967  0.19350959  0.32149528    -0.76800
C210        C  0.75455409  0.13965579  0.24975638     0.86600
O211        O  0.77385329  0.16062186  0.26412103    -0.64000
Ni212      Ni  0.76035479  0.27722336  0.30780319     1.27400
Ni213      Ni  0.73161706  0.25417317  0.23494275     1.26100
H214        H  0.77734073  0.22162141  0.21922611     0.41100
O215        O  0.84586944  0.26655296  0.76517586    -0.78800
O216        O  0.69129596  0.28058701  0.76441897    -0.63500
O217        O  0.77814627  0.24778310  0.77467478    -1.10100
C218        C  0.77619379  0.23583664  0.65454753     1.08100
O219        O  0.67658848  0.24431450  0.72430733    -0.76700
O220        O  0.71848942  0.19852945  0.70310678    -0.64300
Ni221      Ni  0.81189952  0.26912865  0.80101855     1.34900
C222        C  0.74069058  0.18389625  0.71991466     0.86800
O223        O  0.72878399  0.26562608  0.81807697    -0.77200
O224        O  0.78100280  0.27147594  0.83900793    -0.87500
C225        C  0.66940574  0.26236036  0.74976583     0.86400
O226        O  0.80306762  0.31399866  0.78901045    -0.65700
O227        O  0.74503235  0.24129086  0.65569742    -0.85000
C228        C  0.77618015  0.32819003  0.78124507     0.87200
C229        C  0.74925014  0.26874417  0.84280578     1.08800
H230        H  0.74955272  0.28621611  0.71407144     0.40600
O231        O  0.74478800  0.26403730  0.72221999    -1.07700
O232        O  0.76694429  0.19855032  0.73098687    -0.64300
Ni233      Ni  0.78619952  0.24254663  0.72776479     1.26300
O234        O  0.74946373  0.31211577  0.77322411    -0.64600
O235        O  0.79480191  0.23663338  0.68055208    -0.76800
C236        C  0.85117888  0.24169432  0.74572965     0.86600
O237        O  0.82731811  0.22323641  0.73586201    -0.64000
Ni238      Ni  0.71259942  0.24404032  0.69174273     1.27400
Ni239      Ni  0.73556321  0.26571996  0.77023676     1.26100
H240        H  0.77496612  0.22617127  0.78487630     0.41100
N241        N  0.72362280  0.01685086  0.74068577    -0.01400
C242        C  0.74395500  0.99048504  0.73792367     0.01200
C243        C  0.77689996  0.00103026  0.73480362    -0.21700
C244        C  0.77711107  0.03491511  0.73550455    -0.21900
C245        C  0.74429793  0.04400213  0.73894663     0.01100
H246        H  0.79853146  0.98562760  0.73283252     0.14900
H247        H  0.79881362  0.05127342  0.73321200     0.14900
N248        N  0.51322666  0.81435875  0.72846867    -0.01400
C249        C  0.54034814  0.79627963  0.71972416     0.01200
C250        C  0.53038052  0.76638211  0.70539308    -0.21700
C251        C  0.49626556  0.76558852  0.70523657    -0.21900
C252        C  0.48625406  0.79504064  0.71939903     0.01100
H253        H  0.54629760  0.74635533  0.69788539     0.14900
H254        H  0.48033662  0.74487953  0.69751691     0.14900
N255        N  0.30854016  0.01216728  0.72676144    -0.01400
C256        C  0.29026114  0.98407987  0.71912155     0.01200
C257        C  0.25912815  0.99212743  0.70725956    -0.21700
C258        C  0.25782473  0.02591240  0.70743645    -0.21900
C259        C  0.28822176  0.03783401  0.71937923     0.01100
H260        H  0.23884201  0.97505312  0.70084805     0.14900
H261        H  0.23660840  0.04038105  0.70028494     0.14900
O262        O  0.56321569  0.01673152  0.77917645    -0.72300
O263        O  0.46593635  0.01780323  0.77582764    -0.72400
O264        O  0.51309587  0.97037248  0.77158983    -0.72400
O265        O  0.51619451  0.06428165  0.78578462    -0.72500
O266        O  0.51795747  0.07293003  0.72971493    -0.72400
O267        O  0.51566084  0.97714690  0.71538726    -0.72400
O268        O  0.46947570  0.02528433  0.71971764    -0.72400
O269        O  0.56455507  0.02447467  0.72293833    -0.72400
Ni270      Ni  0.51451858  0.01711493  0.78007883     1.25400
Ni271      Ni  0.51702016  0.02534311  0.72000880     1.25400
C272        C  0.57979364  0.01972048  0.75103519     0.89800
C273        C  0.45171342  0.02099863  0.74658468     0.89800
C274        C  0.51397590  0.95785640  0.74156540     0.89800
C275        C  0.51744184  0.08429317  0.76052711     0.90000
N276        N  0.51202014  0.22341087  0.79814738    -0.01400
C277        C  0.48423729  0.23598902  0.81296915     0.01200
C278        C  0.49246950  0.26287874  0.83330926    -0.21700
C279        C  0.52608845  0.26800970  0.83042123    -0.21900
C280        C  0.53770794  0.24368799  0.80879474     0.01100
H281        H  0.47528999  0.27970576  0.84520099     0.14900
H282        H  0.53983460  0.28928558  0.84038224     0.14900
O283        O  0.34577343  0.23373206  0.73589499    -0.78800
O284        O  0.19761021  0.21893242  0.72120857    -0.63500
O285        O  0.28322313  0.25988616  0.72496590    -1.10100
C286        C  0.25849610  0.26779476  0.84137377     1.08100
O287        O  0.17811113  0.26311330  0.74727747    -0.76700
O288        O  0.22035188  0.31034713  0.77342359    -0.64300
Ni289      Ni  0.31816379  0.24346215  0.69762947     1.34900
C290        C  0.24932343  0.32372908  0.77456956     0.86800
O291        O  0.24119806  0.23497169  0.67269150    -0.77200
O292        O  0.29247427  0.25337201  0.65789266    -0.87500
C293        C  0.17345720  0.23685973  0.72959740     0.86400
O294        O  0.30541609  0.19717892  0.69623812    -0.65700
O295        O  0.22917741  0.27300967  0.83013703    -0.85000
C296        C  0.28393145  0.18064511  0.71355721     0.87200
C297        C  0.26186427  0.24710005  0.65113885     1.08800
H298        H  0.23899884  0.22125400  0.77995810     0.40600
O299        O  0.24038365  0.24292454  0.76957491    -1.07700
O300        O  0.27570112  0.30657113  0.77550165    -0.64300
Ni301      Ni  0.28476332  0.25923102  0.77370147     1.26300
O302        O  0.25866221  0.19437486  0.72689303    -0.64600
O303        O  0.28268621  0.25876086  0.82236496    -0.76800
C304        C  0.35253101  0.25146223  0.76193230     0.86600
O305        O  0.33135649  0.27036727  0.77575644    -0.64000
Ni306      Ni  0.20520409  0.26756538  0.78797103     1.27400
Ni307      Ni  0.24092260  0.23828948  0.72153923     1.26100
H308        H  0.28041594  0.28251092  0.71783053     0.41100
N309        N  0.23753532  0.70354364  0.00591592    -0.01400
C310        C  0.24135078  0.72514013  0.97917567     0.01200
C311        C  0.23848794  0.75735101  0.99044813    -0.21700
C312        C  0.23306349  0.75608043  0.02486171    -0.21900
C313        C  0.23273710  0.72309890  0.03407996     0.01100
H314        H  0.24094510  0.77959365  0.97520268     0.14900
H315        H  0.23116821  0.77719543  0.04177065     0.14900
N316        N  0.24803692  0.49302241  0.79259517    -0.01400
C317        C  0.24488421  0.52005550  0.77205307     0.01200
C318        C  0.24936174  0.51127888  0.73824662    -0.21700
C319        C  0.25545457  0.47807661  0.73761145    -0.21900
C320        C  0.25448091  0.46726644  0.77101594     0.01100
H321        H  0.24881859  0.52751785  0.71633474     0.14900
H322        H  0.25929819  0.46311952  0.71503165     0.14900
N323        N  0.26953547  0.29347859  0.01158278    -0.01400
C324        C  0.27897446  0.27377001  0.98525869     0.01200
C325        C  0.28862845  0.24318570  0.99653726    -0.21700
C326        C  0.28523122  0.24363078  0.03115163    -0.21900
C327        C  0.27362333  0.27446252  0.03971251     0.01100
H328        H  0.29637705  0.22248765  0.98106635     0.14900
H329        H  0.29105000  0.22377303  0.04846916     0.14900
O330        O  0.20605324  0.54213457  0.00269901    -0.72300
O331        O  0.21076074  0.44566903  0.00333545    -0.72400
O332        O  0.20279021  0.49359989  0.05129532    -0.72400
O333        O  0.21200664  0.49386961  0.95424113    -0.72500
O334        O  0.26730572  0.49768901  0.95883004    -0.72400
O335        O  0.25781921  0.49794010  0.05768005    -0.72400
O336        O  0.26593687  0.45111576  0.00854163    -0.72400
O337        O  0.26126446  0.54534003  0.00779287    -0.72400
Ni338      Ni  0.20593769  0.49371897  0.00271693     1.25400
Ni339      Ni  0.26497882  0.49823447  0.00844450     1.25400
C340        C  0.23334139  0.55965764  0.00479155     0.89800
C341        C  0.23968789  0.43268378  0.00585007     0.89800
C342        C  0.22833411  0.49506290  0.07072491     0.89800
C343        C  0.24088961  0.49560806  0.94025555     0.90000
N344        N  0.20175781  0.49097480  0.21606681    -0.01400
C345        C  0.19472075  0.51835896  0.23461847     0.01200
C346        C  0.17846238  0.50987287  0.26455396    -0.21700
C347        C  0.17524103  0.47600657  0.26467702    -0.21900
C348        C  0.18979048  0.46486358  0.23480585     0.01100
H349        H  0.17150348  0.52643292  0.28500264     0.14900
H350        H  0.16576103  0.46105317  0.28562794     0.14900
N351        N  0.49974254  0.79347725  0.29154527    -0.01400
C352        C  0.52545419  0.77516811  0.30265454     0.01200
C353        C  0.51389129  0.74562268  0.31645384    -0.21700
C354        C  0.47981625  0.74559792  0.31405270    -0.21900
C355        C  0.47174117  0.77512636  0.29887795     0.01100
H356        H  0.52878739  0.72545762  0.32541342     0.14900
H357        H  0.46278183  0.72548899  0.32099687     0.14900
N358        N  0.71193484  0.98649884  0.29937939    -0.01400
C359        C  0.72491163  0.95763615  0.30993682     0.01200
C360        C  0.75396506  0.96352246  0.32801676    -0.21700
C361        C  0.76000137  0.99689143  0.32752450    -0.21900
C362        C  0.73414109  0.01053258  0.30947352     0.01100
H363        H  0.77136782  0.94517223  0.33635469     0.14900
H364        H  0.78290269  0.00908223  0.33584775     0.14900
N365        N  0.30419593  0.99220371  0.22237517    -0.01400
C366        C  0.28897580  0.01693250  0.20569632     0.01200
C367        C  0.26183407  0.00480950  0.18755746    -0.21700
C368        C  0.26008993  0.97137855  0.19339683    -0.21900
C369        C  0.28632477  0.96430176  0.21472604     0.01100
H370        H  0.24341881  0.01914427  0.17442384     0.14900
H371        H  0.24008133  0.95455221  0.18559062     0.14900
O372        O  0.50396479  0.95371614  0.29560382    -0.72300
O373        O  0.50387018  0.04811956  0.28453765    -0.72400
O374        O  0.45634154  0.99898291  0.28342322    -0.72400
O375        O  0.55186712  0.00268624  0.29623499    -0.72500
O376        O  0.55956260  0.99524264  0.24044465    -0.72400
O377        O  0.46486687  0.99350201  0.22756539    -0.72400
O378        O  0.51263678  0.04198693  0.22883949    -0.72400
O379        O  0.51086358  0.94706947  0.23960447    -0.72400
Ni380      Ni  0.50382908  0.00110590  0.29194742     1.25400
Ni381      Ni  0.51231858  0.99428480  0.23216615     1.25400
C382        C  0.50695304  0.93471308  0.26955038     0.89800
C383        C  0.50765877  0.06080562  0.25477747     0.89800
C384        C  0.44487025  0.99594193  0.25298998     0.89800
C385        C  0.57148617  0.99896370  0.27054484     0.90000
N386        N  0.50713176  0.20282135  0.23852065    -0.01400
C387        C  0.48387829  0.22640633  0.24289790     0.01200
C388        C  0.49817399  0.25763772  0.23847033    -0.21700
C389        C  0.53129164  0.25334393  0.23145741    -0.21900
C390        C  0.53608302  0.21967766  0.23174330     0.01100
H391        H  0.48574319  0.28106150  0.24012723     0.14900
H392        H  0.55007691  0.27267127  0.22739520     0.14900
N393        N  0.81538736  0.17418016  0.50259429    -0.01400
C394        C  0.79490609  0.15957268  0.47924049     0.01200
C395        C  0.77120252  0.13969023  0.49547183    -0.21700
C396        C  0.77672383  0.14320859  0.52986910    -0.21900
C397        C  0.80346858  0.16522930  0.53365375     0.01100
H398        H  0.74947333  0.12774188  0.48408685     0.14900
H399        H  0.75967174  0.13501471  0.54981105     0.14900
N400        N  0.01080571  0.21036034  0.69964755    -0.01400
C401        C  0.98385864  0.20521791  0.72006722     0.01200
C402        C  0.99304064  0.19260647  0.75128127    -0.21700
C403        C  0.02693739  0.18969610  0.75022869    -0.21900
C404        C  0.03708334  0.20066893  0.71839275     0.01100
H405        H  0.97700192  0.18808115  0.77316922     0.14900
H406        H  0.04274249  0.18275102  0.77123642     0.14900
N407        N  0.98878368  0.25259996  0.27715707    -0.01400
C408        C  0.96010405  0.25405596  0.25892001     0.01200
C409        C  0.96681311  0.26124830  0.22506476    -0.21700
C410        C  0.00072202  0.26409647  0.22197202    -0.21900
C411        C  0.01353171  0.25854505  0.25405053     0.01100
H412        H  0.94886884  0.26354468  0.20467978     0.14900
H413        H  0.01463680  0.26835376  0.19858245     0.14900
O414        O  0.01650068  0.20882044  0.43526885    -0.72300
O415        O  0.01956167  0.20021451  0.53348463    -0.72400
O416        O  0.97190300  0.19524968  0.48490742    -0.72400
O417        O  0.06561412  0.21297525  0.48383463    -0.72500
O418        O  0.05733247  0.26681600  0.49036530    -0.72400
O419        O  0.96215261  0.24904475  0.49033345    -0.72400
O420        O  0.01007187  0.25390736  0.53911436    -0.72400
O421        O  0.00852169  0.26285688  0.44136189    -0.72400
Ni422      Ni  0.01886236  0.20249883  0.48416869     1.25400
Ni423      Ni  0.00931974  0.26013153  0.49044906     1.25400
C424        C  0.01083416  0.23723795  0.42215832     0.89800
C425        C  0.01459642  0.22553443  0.55263589     0.89800
C426        C  0.95150673  0.21890856  0.48747327     0.89800
C427        C  0.07728566  0.24253874  0.48745343     0.90000
N428        N  0.22027545  0.26451720  0.48662005    -0.01400
C429        C  0.23982467  0.26294604  0.45836222     0.01200
C430        C  0.27233161  0.27233810  0.46576574    -0.21700
C431        C  0.27302578  0.27972118  0.49990034    -0.21900
C432        C  0.24093684  0.27438437  0.51221164     0.01100
H433        H  0.29344382  0.27263940  0.44844193     0.14900
H434        H  0.29511220  0.28570874  0.51473011     0.14900
O435        O  0.24337206  0.15522873  0.26087398    -0.78800
O436        O  0.21795955  0.30878241  0.26077834    -0.63500
O437        O  0.22648507  0.21780247  0.23772331    -1.10100
C438        C  0.34302723  0.24111899  0.25039630     1.08100
O439        O  0.26307062  0.32427211  0.23131437    -0.76700
O440        O  0.30344794  0.28377586  0.19925140    -0.64300
Ni441      Ni  0.20526109  0.18398499  0.26347465     1.34900
C442        C  0.28588927  0.26376457  0.18144446     0.86800
O443        O  0.17444252  0.25950818  0.24392177    -0.77200
O444        O  0.16481631  0.20904714  0.26656705    -0.87500
C445        C  0.23476459  0.33058146  0.24415377     0.86400
O446        O  0.22037153  0.20048175  0.30654194    -0.65700
O447        O  0.33559114  0.27040864  0.25929290    -0.85000
C448        C  0.21748830  0.22964847  0.31815623     0.87200
C449        C  0.15467868  0.23684371  0.25550975     1.08800
H450        H  0.27216332  0.25822656  0.28345266     0.40600
O451        O  0.26844386  0.26110129  0.25931598    -1.07700
O452        O  0.27217172  0.23765172  0.19372808    -0.64300
Ni453      Ni  0.27364600  0.21902638  0.23861515     1.26300
O454        O  0.21330242  0.25451826  0.29897708    -0.64600
O455        O  0.32160368  0.22025766  0.23880056    -0.76800
C456        C  0.26473860  0.15163476  0.23688231     0.86600
O457        O  0.27550196  0.17609394  0.21945269    -0.64000
Ni458      Ni  0.29808827  0.29604932  0.24595378     1.27400
Ni459      Ni  0.22131014  0.26234913  0.25112488     1.26100
H460        H  0.21874201  0.21529227  0.21450218     0.41100
C461        C  0.24048408  0.21610578  0.37543213     0.25700
C462        C  0.21958524  0.23539379  0.35526690    -0.22400
C463        C  0.20241112  0.26168543  0.37052455     0.20600
C464        C  0.20726133  0.26941292  0.40496458     0.25600
C465        C  0.22951656  0.25122016  0.42441120    -0.22400
C466        C  0.24568745  0.22423715  0.40965407     0.20500
F467        F  0.26757759  0.20654947  0.42814111    -0.12300
F468        F  0.25759025  0.19075664  0.36154359    -0.14700
F469        F  0.19202751  0.29600259  0.41868036    -0.14700
F470        F  0.18155124  0.28042547  0.35191267    -0.12300
C471        C  0.12862383  0.27904142  0.49813949     0.25700
C472        C  0.11431653  0.24819080  0.48830394    -0.22400
C473        C  0.13599876  0.22236031  0.47957101     0.20600
C474        C  0.17065567  0.22767657  0.47932875     0.25600
C475        C  0.18466039  0.25851640  0.48859456    -0.22400
C476        C  0.16342781  0.28400989  0.49844326     0.20500
F477        F  0.17648670  0.31412714  0.50731838    -0.12300
F478        F  0.10906658  0.30443555  0.50766672    -0.14700
F479        F  0.19070140  0.20247713  0.47042403    -0.14700
F480        F  0.12384410  0.19180712  0.47095295    -0.12300
C481        C  0.06152435  0.22464700  0.27126744     0.25700
C482        C  0.04941230  0.25481964  0.25970656    -0.22400
C483        C  0.07177333  0.27922785  0.24741119     0.20600
C484        C  0.10583784  0.27342165  0.24589854     0.25600
C485        C  0.11837825  0.24308191  0.25719957    -0.22400
C486        C  0.09568337  0.21879378  0.27019164     0.20500
F487        F  0.10612644  0.18877254  0.28065499    -0.12300
F488        F  0.04014353  0.19987770  0.28123025    -0.14700
F489        F  0.12620027  0.29721109  0.23215162    -0.14700
F490        F  0.06036890  0.30841383  0.23563793    -0.12300
C491        C  0.00934476  0.27393898  0.33257253     0.25700
C492        C  0.99291339  0.24883891  0.31366497    -0.22400
C493        C  0.98259334  0.21963057  0.33051192     0.20600
C494        C  0.98915934  0.21542170  0.36552904     0.25600
C495        C  0.00569592  0.24063366  0.38453445    -0.22400
C496        C  0.01539770  0.27007015  0.36757914     0.20500
F497        F  0.03129170  0.29502339  0.38478677    -0.12300
F498        F  0.01928635  0.30250336  0.31699066    -0.14700
F499        F  0.97850670  0.18704172  0.38104457    -0.14700
F500        F  0.96697407  0.19485229  0.31282744    -0.12300
C501        C  0.00591085  0.24897080  0.61233874     0.25700
C502        C  0.01364582  0.22194766  0.59079794    -0.22400
C503        C  0.01993543  0.19122692  0.60628985     0.20600
C504        C  0.01881488  0.18777168  0.64187012     0.25600
C505        C  0.01096183  0.21459305  0.66303434    -0.22400
C506        C  0.00443074  0.24519638  0.64801539     0.20500
F507        F  0.99735999  0.27164867  0.66790240    -0.12300
F508        F  0.99973055  0.27918912  0.59906232    -0.14700
F509        F  0.02520643  0.15792172  0.65588771    -0.14700
F510        F  0.02724765  0.16429164  0.58714690    -0.12300
C511        C  0.87081931  0.16995728  0.47576950     0.25700
C512        C  0.84846457  0.18792735  0.49589425    -0.22400
C513        C  0.85945308  0.21845777  0.50998531     0.20600
C514        C  0.89263408  0.22950934  0.50601578     0.25600
C515        C  0.91539764  0.21038355  0.48768898    -0.22400
C516        C  0.90380129  0.18112187  0.47153412     0.20500
F517        F  0.92458036  0.16292721  0.45194104    -0.12300
F518        F  0.86106546  0.14074438  0.46126387    -0.14700
F519        F  0.90270535  0.25827450  0.52124218    -0.14700
F520        F  0.83810559  0.23817783  0.52685092    -0.12300
C521        C  0.39916865  0.24392552  0.27817225     0.25700
C522        C  0.37835534  0.23141439  0.25214734    -0.22400
C523        C  0.39235107  0.21204919  0.22596951     0.20600
C524        C  0.42690485  0.20744606  0.22455911     0.25600
C525        C  0.44780590  0.22161404  0.24959122    -0.22400
C526        C  0.43352843  0.23901291  0.27690719     0.20500
F527        F  0.45331412  0.25334494  0.30114222    -0.12300
F528        F  0.38642550  0.26204794  0.30416597    -0.14700
F529        F  0.44021267  0.19222990  0.19691077    -0.14700
F530        F  0.37305635  0.20017753  0.20003104    -0.12300
C531        C  0.51197339  0.11232617  0.21817252     0.25700
C532        C  0.50582775  0.09758383  0.25031695    -0.22400
C533        C  0.49747838  0.11851355  0.27798409     0.20600
C534        C  0.49619016  0.15297784  0.27367420     0.25600
C535        C  0.50343828  0.16736334  0.24188741    -0.22400
C536        C  0.51084317  0.14673365  0.21414901     0.20500
F537        F  0.51722346  0.16010351  0.18300567    -0.12300
F538        F  0.51967203  0.09363073  0.19053132    -0.14700
F539        F  0.48923138  0.17250685  0.30090689    -0.14700
F540        F  0.49097518  0.10585620  0.30945321    -0.12300
C541        C  0.29466373  0.07628309  0.18929717     0.25700
C542        C  0.29235567  0.05214629  0.21491555    -0.22400
C543        C  0.28533398  0.06163279  0.24860875     0.20600
C544        C  0.27766892  0.09436618  0.25606039     0.25600
C545        C  0.27762906  0.11830307  0.22999195    -0.22400
C546        C  0.28775404  0.10927637  0.19682233     0.20500
F547        F  0.28836849  0.13172892  0.17108434    -0.12300
F548        F  0.30161706  0.06747525  0.15660315    -0.14700
F549        F  0.26884853  0.10226247  0.28853587    -0.14700
F550        F  0.28260174  0.03858901  0.27370895    -0.12300
C551        C  0.36274755  0.00058287  0.20568552     0.25700
C552        C  0.33908350  0.99325535  0.23121262    -0.22400
C553        C  0.35005672  0.98697183  0.26452080     0.20600
C554        C  0.38440321  0.98826357  0.27213894     0.25600
C555        C  0.40823359  0.99547584  0.24630941    -0.22400
C556        C  0.39673462  0.00181403  0.21303597     0.20500
F557        F  0.41833687  0.00961517  0.18731865    -0.12300
F558        F  0.35278705  0.00609692  0.17315257    -0.14700
F559        F  0.39425760  0.98191004  0.30453050    -0.14700
F560        F  0.32756236  0.97983470  0.28957753    -0.12300
C561        C  0.62877786  0.97905745  0.25439875     0.25700
C562        C  0.60830237  0.99802169  0.27592410    -0.22400
C563        C  0.62321416  0.01496465  0.30358850     0.20600
C564        C  0.65723876  0.01169202  0.31062875     0.25600
C565        C  0.67729222  0.99125038  0.29032929    -0.22400
C566        C  0.66280296  0.97548549  0.26171822     0.20500
F567        F  0.68175238  0.95737411  0.24025752    -0.12300
F568        F  0.61574914  0.96317928  0.22671131    -0.14700
F569        F  0.67044759  0.02787009  0.33802288    -0.14700
F570        F  0.60486813  0.03498905  0.32379191    -0.12300
C571        C  0.49285294  0.84200708  0.25353209     0.25700
C572        C  0.50157798  0.82866199  0.28522980    -0.22400
C573        C  0.51242551  0.85018980  0.31136395     0.20600
C574        C  0.51449321  0.88441551  0.30611397     0.25600
C575        C  0.50566502  0.89809171  0.27444630    -0.22400
C576        C  0.49487581  0.87641645  0.24813019     0.20500
F577        F  0.48548859  0.88852556  0.21743487    -0.12300
F578        F  0.48282063  0.82175796  0.22769538    -0.14700
F579        F  0.52559665  0.90411701  0.33204521    -0.14700
F580        F  0.52061765  0.83791321  0.34235379    -0.12300
C581        C  0.24329982  0.38996226  0.22648630     0.25700
C582        C  0.22163329  0.36430872  0.23838417    -0.22400
C583        C  0.18796077  0.37163338  0.24453446     0.20600
C584        C  0.17672816  0.40396506  0.24023677     0.25600
C585        C  0.19901570  0.42976960  0.23031809    -0.22400
C586        C  0.23222307  0.42220367  0.22295908     0.20500
F587        F  0.25502608  0.44648498  0.21543783    -0.12300
F588        F  0.27602533  0.38453943  0.22003282    -0.14700
F589        F  0.14425692  0.41033072  0.24702347    -0.14700
F590        F  0.16599561  0.34780324  0.25540568    -0.12300
C591        C  0.19186962  0.48064995  0.12143478     0.25700
C592        C  0.22278512  0.49293770  0.10852468    -0.22400
C593        C  0.24740459  0.50333884  0.13214301     0.20600
C594        C  0.24088248  0.50232116  0.16748520     0.25600
C595        C  0.20981232  0.49056085  0.17999888    -0.22400
C596        C  0.18558823  0.47954291  0.15658166     0.20500
F597        F  0.15523450  0.46850062  0.16785945    -0.12300
F598        F  0.16742186  0.46947859  0.10009494    -0.14700
F599        F  0.26520784  0.51221581  0.18943365    -0.14700
F600        F  0.27757891  0.51510173  0.12113960    -0.12300
C601        C  0.24556486  0.26785498  0.09479455     0.25700
C602        C  0.27062445  0.28399224  0.07555283    -0.22400
C603        C  0.29919851  0.29680135  0.09193452     0.20600
C604        C  0.30422895  0.29056500  0.12658845     0.25600
C605        C  0.28036700  0.27184014  0.14528500    -0.22400
C606        C  0.25023545  0.26202235  0.12945956     0.20500
F607        F  0.22571110  0.24577528  0.14722026    -0.12300
F608        F  0.21812646  0.25460376  0.07914462    -0.14700
F609        F  0.33352701  0.30056658  0.14107659    -0.14700
F610        F  0.32397362  0.31183875  0.07347011    -0.12300
C611        C  0.23203031  0.34009456  0.02625576     0.25700
C612        C  0.26061513  0.32805422  0.00963603    -0.22400
C613        C  0.28042234  0.35035643  0.99032961     0.20600
C614        C  0.27229058  0.38372090  0.98792233     0.25600
C615        C  0.24434058  0.39613752  0.00517795    -0.22400
C616        C  0.22395930  0.37386058  0.02406722     0.20500
F617        F  0.19711110  0.38496067  0.04150155    -0.12300
F618        F  0.21177649  0.31916663  0.04433407    -0.14700
F619        F  0.29216030  0.40416191  0.96875112    -0.14700
F620        F  0.30860396  0.34010116  0.97468133    -0.12300
C621        C  0.27163049  0.47951013  0.84930781     0.25700
C622        C  0.24571557  0.49230731  0.82953019    -0.22400
C623        C  0.21831019  0.50606686  0.84640509     0.20600
C624        C  0.21695575  0.50736418  0.88219149     0.25600
C625        C  0.24311687  0.49499809  0.90213836    -0.22400
C626        C  0.27045635  0.48099804  0.88519104     0.20500
F627        F  0.29580806  0.46816025  0.90334656    -0.12300
F628        F  0.29863091  0.46644732  0.83381883    -0.14700
F629        F  0.19020871  0.52139385  0.89729529    -0.14700
F630        F  0.19256033  0.51797663  0.82813556    -0.12300
C631        C  0.20657393  0.64996520  0.01323934     0.25700
C632        C  0.23612183  0.66765000  0.00454486    -0.22400
C633        C  0.26414455  0.64976741  0.99477569     0.20600
C634        C  0.26305325  0.61494146  0.99465663     0.25600
C635        C  0.23353971  0.59691218  0.00369911    -0.22400
C636        C  0.20513276  0.61505164  0.01248717     0.20500
F637        F  0.17614110  0.59907850  0.02117440    -0.12300
F638        F  0.17890458  0.66667144  0.02212818    -0.14700
F639        F  0.29106206  0.59890591  0.98540497    -0.14700
F640        F  0.29296600  0.66610392  0.98622287    -0.12300
C641        C  0.11565119  0.25167571  0.71315381     0.25700
C642        C  0.13947120  0.22734614  0.71888850    -0.22400
C643        C  0.12963970  0.19370341  0.71794134     0.20600
C644        C  0.09603079  0.18468392  0.71451687     0.25600
C645        C  0.07207565  0.20906944  0.71101925    -0.22400
C646        C  0.08211797  0.24253284  0.70901934     0.20500
F647        F  0.05912225  0.26653593  0.70685232    -0.12300
F648        F  0.12454313  0.28434682  0.71332289    -0.14700
F649        F  0.08648859  0.15231612  0.71737004    -0.14700
F650        F  0.15203162  0.16968886  0.72361538    -0.12300
C651        C  0.23450036  0.23115981  0.59610694     0.25700
C652        C  0.24961048  0.25537563  0.61707628    -0.22400
C653        C  0.25399184  0.28785610  0.60497063     0.20600
C654        C  0.24631848  0.29532288  0.57121640     0.25600
C655        C  0.23474782  0.27026875  0.54901646    -0.22400
C656        C  0.22740197  0.23846693  0.56203409     0.20500
F657        F  0.21720180  0.21352722  0.54095529    -0.12300
F658        F  0.22948887  0.19977498  0.60768102    -0.14700
F659        F  0.25300000  0.32632981  0.55928314    -0.14700
F660        F  0.26694690  0.31203302  0.62552684    -0.12300
C661        C  0.28174714  0.37824778  0.76798062     0.25700
C662        C  0.25186760  0.36084052  0.77618725    -0.22400
C663        C  0.22417069  0.37941207  0.78694249     0.20600
C664        C  0.22607924  0.41413922  0.78845273     0.25600
C665        C  0.25548791  0.43134774  0.77907466    -0.22400
C666        C  0.28332595  0.41304922  0.76895961     0.20500
F667        F  0.31174244  0.42907980  0.75852601    -0.12300
F668        F  0.30904883  0.36176614  0.75745255    -0.14700
F669        F  0.19832066  0.43106325  0.79666871    -0.14700
F670        F  0.19480298  0.36409230  0.79557923    -0.12300
C671        C  0.23708560  0.27788941  0.90079046     0.25700
C672        C  0.26429331  0.27308689  0.87831796    -0.22400
C673        C  0.29690213  0.27365453  0.89169774     0.20600
C674        C  0.30190702  0.27699281  0.92673984     0.25600
C675        C  0.27461875  0.28019872  0.94888253    -0.22400
C676        C  0.24234323  0.28151131  0.93574790     0.20500
F677        F  0.21564535  0.28337466  0.95707979    -0.12300
F678        F  0.20510987  0.27739742  0.88942762    -0.14700
F679        F  0.33335648  0.27564918  0.93936158    -0.14700
F680        F  0.32397384  0.27016259  0.87117358    -0.12300
C681        C  0.42301734  0.22557190  0.81840790     0.25700
C682        C  0.45071487  0.23460862  0.79807226    -0.22400
C683        C  0.44573888  0.25125500  0.76712537     0.20600
C684        C  0.41357722  0.25752115  0.75596923     0.25600
C685        C  0.38593746  0.24843631  0.77618027    -0.22400
C686        C  0.39068778  0.23230976  0.80741629     0.20500
F687        F  0.36407762  0.22267179  0.82686305    -0.12300
F688        F  0.42745633  0.21128565  0.84933339    -0.14700
F689        F  0.40933593  0.27318979  0.72571809    -0.14700
F690        F  0.47218312  0.26311641  0.74865417    -0.12300
C691        C  0.50015775  0.14317237  0.74798417     0.25700
C692        C  0.51805051  0.12080942  0.76797944    -0.22400
C693        C  0.53480253  0.13331663  0.79710998     0.20600
C694        C  0.53358785  0.16698643  0.80602768     0.25600
C695        C  0.51497785  0.18922733  0.78666282    -0.22400
C696        C  0.49838590  0.17686738  0.75735286     0.20500
F697        F  0.48075604  0.19730733  0.73737889    -0.12300
F698        F  0.48308699  0.13214669  0.72015826    -0.14700
F699        F  0.54978184  0.17772692  0.83451092    -0.14700
F700        F  0.55239573  0.11282626  0.81726083    -0.12300
C701        C  0.26866709  0.12583425  0.74172414     0.25700
C702        C  0.28864891  0.14406707  0.71832881    -0.22400
C703        C  0.31332544  0.12679935  0.69989063     0.20600
C704        C  0.31596005  0.09219424  0.70281967     0.25600
C705        C  0.29436687  0.07404498  0.72445930    -0.22400
C706        C  0.27152557  0.09144399  0.74465838     0.20500
F707        F  0.25031777  0.07463404  0.76592469    -0.12300
F708        F  0.24555028  0.14100609  0.76130977    -0.14700
F709        F  0.33787964  0.07622736  0.68251515    -0.14700
F710        F  0.33399876  0.14301701  0.67768241    -0.12300
C711        C  0.35735754  0.02270743  0.76486638     0.25700
C712        C  0.34409568  0.01424765  0.73272179    -0.22400
C713        C  0.36606955  0.00856677  0.70557622     0.20600
C714        C  0.40064457  0.01105270  0.71019931     0.25600
C715        C  0.41446167  0.01889166  0.74252718    -0.22400
C716        C  0.39225202  0.02468452  0.76987336     0.20500
F717        F  0.40422270  0.03298419  0.80119165    -0.12300
F718        F  0.33649875  0.02898798  0.79132687    -0.14700
F719        F  0.42054459  0.00537823  0.68276087    -0.14700
F720        F  0.35381768  0.00135911  0.67408991    -0.12300
C721        C  0.51456346  0.87027363  0.70281331     0.25700
C722        C  0.51310234  0.85005662  0.73201295    -0.22400
C723        C  0.51102158  0.86520120  0.76412019     0.20600
C724        C  0.51127034  0.89993558  0.76714458     0.25600
C725        C  0.51320620  0.92061833  0.73789235    -0.22400
C726        C  0.51456433  0.90504591  0.70560426     0.20500
F727        F  0.51593191  0.92332463  0.67658983    -0.12300
F728        F  0.51582896  0.85610549  0.67139240    -0.14700
F729        F  0.50963469  0.91315266  0.79899316    -0.14700
F730        F  0.50868710  0.84632938  0.79265368    -0.12300
C731        C  0.66744519  0.00245349  0.71844462     0.25700
C732        C  0.68767351  0.01636344  0.74415311    -0.22400
C733        C  0.67235958  0.03033668  0.77299370     0.20600
C734        C  0.63734692  0.03045347  0.77607904     0.25600
C735        C  0.61695462  0.01730314  0.74990068    -0.22400
C736        C  0.63253504  0.00305617  0.72113825     0.20500
F737        F  0.61390950  0.98944141  0.69556665    -0.12300
F738        F  0.68159424  0.98923158  0.69014183    -0.14700
F739        F  0.62343932  0.04449694  0.80405781    -0.14700
F740        F  0.69145784  0.04375563  0.79825177    -0.12300
C741        C  0.72177428  0.09203958  0.70749036     0.25700
C742        C  0.73482149  0.07898755  0.73766791    -0.30800
C743        C  0.74690970  0.10066403  0.76306974     0.20600
C744        C  0.74743542  0.13485715  0.75784449     0.25600
C745        C  0.73613197  0.14804078  0.72688996    -0.22400
C746        C  0.72228916  0.12637852  0.70214829     0.20500
F747        F  0.71179152  0.13819811  0.67171175    -0.12300
F748        F  0.71144176  0.07146042  0.68195704    -0.14700
F749        F  0.75994118  0.15505131  0.78271456    -0.14700
F750        F  0.76018794  0.08849379  0.79215383    -0.12300
C751        C  0.81588748  0.20099446  0.62157853     0.25700
C752        C  0.79061696  0.22482924  0.62187507    -0.22400
C753        C  0.77476949  0.23269867  0.59119349     0.20600
C754        C  0.78085425  0.21430989  0.56188384     0.25600
C755        C  0.80339340  0.18826723  0.56258483    -0.22400
C756        C  0.82195386  0.18254473  0.59201036     0.20500
F757        F  0.84419961  0.15777443  0.59272909    -0.12300
F758        F  0.83247471  0.19331683  0.65054386    -0.14700
F759        F  0.76338529  0.22069126  0.53309639    -0.14700
F760        F  0.75179707  0.25679365  0.59010475    -0.12300
C761        C  0.60884686  0.24535892  0.74453806     0.25700
C762        C  0.63516315  0.25930769  0.76409336    -0.22400
C763        C  0.62909161  0.26717036  0.79846798     0.20600
C764        C  0.59840153  0.25908744  0.81360756     0.25600
C765        C  0.57189844  0.24556911  0.79403035    -0.22400
C766        C  0.57735899  0.23939958  0.75912061     0.20500
F767        F  0.55192049  0.22941436  0.73848436    -0.12300
F768        F  0.61316178  0.23849612  0.71087010    -0.14700
F769        F  0.59459658  0.26494876  0.84754436    -0.14700
F770        F  0.65280711  0.28281519  0.81760059    -0.12300
C771        C  0.89170553  0.20283026  0.71930518     0.25700
C772        C  0.88503681  0.23439335  0.73308260    -0.22400
C773        C  0.91114014  0.25824225  0.73501936     0.20600
C774        C  0.94365002  0.24977412  0.72628725     0.25600
C775        C  0.95038227  0.21766139  0.71483812    -0.22400
C776        C  0.92413290  0.19469173  0.71019673     0.20500
F777        F  0.93046440  0.16327516  0.70008013    -0.12300
F778        F  0.86744232  0.17883623  0.71703195    -0.14700
F779        F  0.96907214  0.27179130  0.73253125    -0.14700
F780        F  0.90559356  0.28923647  0.74686817    -0.12300
C781        C  0.75410951  0.06947390  0.31302679     0.25700
C782        C  0.73669057  0.04429806  0.29505401    -0.22400
C783        C  0.72688511  0.05029101  0.26119808     0.20600
C784        C  0.73278246  0.08117495  0.24638830     0.25600
C785        C  0.75075608  0.10607271  0.26415753    -0.22400
C786        C  0.76250600  0.09933017  0.29712388     0.20500
F787        F  0.78244042  0.12144979  0.31400933    -0.12300
F788        F  0.76367369  0.06506853  0.34589658    -0.14700
F789        F  0.72188541  0.08614339  0.21406391    -0.14700
F790        F  0.71355686  0.02587643  0.24133113    -0.12300
C791        C  0.78674126  0.21944908  0.40615783     0.25700
C792        C  0.77305615  0.19907628  0.38026918    -0.22400
C793        C  0.76744540  0.16512958  0.38720962     0.20600
C794        C  0.77705075  0.15170489  0.41841954     0.25600
C795        C  0.79032340  0.17230007  0.44423563    -0.22400
C796        C  0.79428133  0.20642226  0.43790132     0.20500
F797        F  0.80315633  0.22797221  0.46304548    -0.12300
F798        F  0.79209595  0.25244243  0.40142228    -0.14700
F799        F  0.77239240  0.11869775  0.42372808    -0.14700
F800        F  0.75111113  0.14512917  0.36465941    -0.12300
C801        C  0.58885539  0.20279200  0.25852647     0.25700
C802        C  0.56952911  0.20580066  0.22894349    -0.22400
C803        C  0.58494820  0.20435195  0.19677693     0.20600
C804        C  0.61957927  0.20202302  0.19419145     0.25600
C805        C  0.63924054  0.20249219  0.22378768    -0.22400
C806        C  0.62363960  0.20152751  0.25599604     0.20500
F807        F  0.64217968  0.20097454  0.28492706    -0.12300
F808        F  0.57428995  0.20426245  0.28984297    -0.14700
F809        F  0.63412809  0.20277756  0.16282231    -0.14700
F810        F  0.56678720  0.20828773  0.16796139    -0.12300
C811        C  0.87556388  0.26948227  0.29651393     0.25700
C812        C  0.85585148  0.24569185  0.27868444    -0.22400
C813        C  0.87186234  0.22217457  0.25817121     0.20600
C814        C  0.90644259  0.22334972  0.25440483     0.25600
C815        C  0.92582330  0.24785300  0.27105325    -0.22400
C816        C  0.91032624  0.27058655  0.29257517     0.20500
F817        F  0.92854087  0.29525310  0.30777628    -0.12300
F818        F  0.86124082  0.29204462  0.31731746    -0.14700
F819        F  0.92100423  0.20165042  0.23275314    -0.14700
F820        F  0.85403864  0.19903416  0.24021904    -0.12300
C821        C  0.74541755  0.40484396  0.22389708     0.25700
C822        C  0.71312217  0.41742630  0.22552671    -0.22400
C823        C  0.68582732  0.39568976  0.23143932     0.20600
C824        C  0.69104733  0.36251710  0.23924216     0.25600
C825        C  0.72370336  0.35095929  0.24193617    -0.22400
C826        C  0.75074774  0.37186262  0.23248696     0.20500
F827        F  0.78243297  0.36074981  0.23294952    -0.12300
F828        F  0.77216875  0.42544219  0.21826229    -0.14700
F829        F  0.66440253  0.34255830  0.24727129    -0.14700
F830        F  0.65443474  0.40745185  0.23324010    -0.12300
C831        C  0.75977960  0.49940116  0.13050329     0.25700
C832        C  0.73294281  0.49147334  0.10843753    -0.22400
C833        C  0.70351400  0.47743252  0.12269758     0.20600
C834        C  0.70084215  0.47196858  0.15800577     0.25600
C835        C  0.72735594  0.48064557  0.18003152    -0.22400
C836        C  0.75700198  0.49397322  0.16582729     0.20500
F837        F  0.78334590  0.50172359  0.18624423    -0.12300
F838        F  0.78856339  0.51316409  0.11803344    -0.14700
F839        F  0.67176631  0.45927672  0.17089421    -0.14700
F840        F  0.67737700  0.46849696  0.10242962    -0.12300
C841        C  0.73344472  0.26891427  0.06727501     0.25700
C842        C  0.70407319  0.28689930  0.06397957    -0.22400
C843        C  0.68676843  0.29685275  0.09316218     0.20600
C844        C  0.69718888  0.28658694  0.12532716     0.25600
C845        C  0.72473446  0.26572576  0.12830801    -0.22400
C846        C  0.74382382  0.25854790  0.09927994     0.20500
F847        F  0.77140890  0.23988467  0.10168190    -0.12300
F848        F  0.75023965  0.25864990  0.03912746    -0.14700
F849        F  0.67839626  0.29428770  0.15302936    -0.14700
F850        F  0.65812780  0.31383547  0.09019843    -0.12300
C851        C  0.73924939  0.28466336  0.93764709     0.25700
C852        C  0.70476874  0.27850573  0.94200166    -0.22400
C853        C  0.68585412  0.26675026  0.91425679     0.20600
C854        C  0.70107345  0.26111072  0.88292311     0.25600
C855        C  0.73489511  0.27006821  0.87758457    -0.22400
C856        C  0.75406076  0.28120158  0.90558135     0.20500
F857        F  0.78726175  0.28806035  0.90232486    -0.12300
F858        F  0.75909867  0.29228098  0.96467212    -0.14700
F859        F  0.68293452  0.24534832  0.85835659    -0.14700
F860        F  0.65262790  0.26000261  0.91755590    -0.12300
C861        C  0.69971882  0.38936635  0.97942821     0.25700
C862        C  0.72698901  0.40223455  0.99825839    -0.22400
C863        C  0.74723165  0.38020184  0.01594320     0.20600
C864        C  0.73940730  0.34621895  0.01622496     0.25600
C865        C  0.71123860  0.33351777  0.99873597    -0.22400
C866        C  0.69204912  0.35540109  0.97955928     0.20500
F867        F  0.66491791  0.34403010  0.96203693    -0.12300
F868        F  0.68020243  0.40971210  0.96107215    -0.14700
F869        F  0.75966351  0.32587679  0.03341654    -0.14700
F870        F  0.77379987  0.39167263  0.03427092    -0.12300
C871        C  0.80399704  0.41896264  0.77450863     0.25700
C872        C  0.77484083  0.43560324  0.78369469    -0.22400
C873        C  0.74671739  0.41674937  0.79420219     0.20600
C874        C  0.74716426  0.38190050  0.79358090     0.25600
C875        C  0.77585229  0.36519646  0.78257696    -0.22400
C876        C  0.80466230  0.38426677  0.77432843     0.20500
F877        F  0.83312111  0.36937343  0.76443360    -0.12300
F878        F  0.83154519  0.43648335  0.76409233    -0.14700
F879        F  0.71947032  0.36448419  0.80373100    -0.14700
F880        F  0.71810673  0.43200157  0.80289609    -0.12300
C881        C  0.78431732  0.48786840  0.85131383     0.25700
C882        C  0.75839313  0.49791748  0.83001853    -0.22400
C883        C  0.72910034  0.50973212  0.84504111     0.20600
C884        C  0.72569018  0.51134341  0.88071946     0.25600
C885        C  0.75186018  0.50174103  0.90230970    -0.22400
C886        C  0.78123419  0.48983498  0.88694910     0.20500
F887        F  0.80704348  0.47965546  0.90629636    -0.12300
F888        F  0.81317468  0.47703042  0.83749013    -0.14700
F889        F  0.69673197  0.52250599  0.89400917    -0.14700
F890        F  0.70351033  0.51928029  0.82507360    -0.12300
C891        C  0.73301002  0.65610675  0.00403790     0.25700
C892        C  0.76122008  0.67061855  0.01972216    -0.22400
C893        C  0.78579131  0.64993084  0.03273765     0.20600
C894        C  0.78254897  0.61537317  0.02958168     0.25600
C895        C  0.75449254  0.60071328  0.01336337    -0.22400
C896        C  0.72970344  0.62162598  0.00073620     0.20500
F897        F  0.70234591  0.60879899  0.98462407    -0.12300
F898        F  0.70822278  0.67528713  0.99251008    -0.14700
F899        F  0.80664372  0.59631734  0.04292031    -0.14700
F900        F  0.81335214  0.66334614  0.04794949    -0.12300
C901        C  0.78260450  0.72045777  0.14370152     0.25700
C902        C  0.74991700  0.71195181  0.15446849    -0.22400
C903        C  0.72535521  0.70440340  0.12984934     0.20600
C904        C  0.73325659  0.70609359  0.09510064     0.25600
C905        C  0.76566487  0.71551162  0.08468536    -0.22400
C906        C  0.79027089  0.72235326  0.10912375     0.20500
F907        F  0.82155270  0.73210853  0.09936493    -0.12300
F908        F  0.80697764  0.72822671  0.16657972    -0.14700
F909        F  0.70880276  0.70061470  0.07171285    -0.14700
F910        F  0.69375646  0.69552861  0.13933429    -0.12300
C911        C  0.60494869  0.76781489  0.25401556     0.25700
C912        C  0.62780045  0.76451953  0.28099968    -0.22400
C913        C  0.61779264  0.77337246  0.31426958     0.20600
C914        C  0.58451482  0.78091782  0.32094892     0.25600
C915        C  0.56105698  0.78075516  0.29445187    -0.22400
C916        C  0.57185900  0.77603910  0.26072153     0.20500
F917        F  0.54958514  0.77580310  0.23468432    -0.12300
F918        F  0.61414802  0.76150719  0.22127681    -0.14700
F919        F  0.57451940  0.78567222  0.35372117    -0.14700
F920        F  0.63937796  0.77206389  0.34083303    -0.12300
C921        C  0.73006592  0.59176188  0.21108713     0.25700
C922        C  0.74987146  0.60632441  0.23718510    -0.22400
C923        C  0.76811736  0.58573761  0.25856910     0.20600
C924        C  0.76296829  0.55139732  0.25687213     0.25600
C925        C  0.73942409  0.53740445  0.23402310    -0.22400
C926        C  0.72409957  0.55769121  0.21019773     0.20500
F927        F  0.70054121  0.54522355  0.18857767    -0.12300
F928        F  0.71420050  0.61074790  0.18796769    -0.14700
F929        F  0.77897756  0.53190981  0.27940027    -0.14700
F930        F  0.78853118  0.59874849  0.28300202    -0.12300
C931        C  0.70988599  0.86722336  0.29950321     0.25700
C932        C  0.73490396  0.86022510  0.27508762    -0.22400
C933        C  0.74994543  0.88647838  0.25677385     0.20600
C934        C  0.74269984  0.91909331  0.26518096     0.25600
C935        C  0.72068929  0.92586316  0.29223978    -0.22400
C936        C  0.70324073  0.89990799  0.30827784     0.20500
F937        F  0.68237484  0.90613909  0.33479204    -0.12300
F938        F  0.69413581  0.84262501  0.31738135    -0.14700
F939        F  0.76002787  0.94416716  0.24958657    -0.14700
F940        F  0.77310654  0.88071203  0.23221102    -0.12300
C941        C  0.20889249  0.72766742  0.09284115     0.25700
C942        C  0.23287759  0.71383372  0.07096351    -0.22400
C943        C  0.26132724  0.70024141  0.08568621     0.20600
C944        C  0.26644631  0.70197546  0.12122175     0.25600
C945        C  0.24331809  0.71762310  0.14301822    -0.22400
C946        C  0.21392964  0.72948484  0.12829094     0.20500
F947        F  0.19066812  0.74439256  0.14791087    -0.12300
F948        F  0.18129343  0.74141055  0.07946136    -0.14700
F949        F  0.29439327  0.68857145  0.13418916    -0.14700
F950        F  0.28549396  0.68757473  0.06549598    -0.12300
C951        C  0.39445996  0.76373045  0.24661244     0.25700
C952        C  0.36937605  0.76885451  0.27132109    -0.22400
C953        C  0.37890690  0.78254769  0.30321842     0.20600
C954        C  0.41266825  0.78807408  0.31107772     0.25600
C955        C  0.43752544  0.78093241  0.28709155    -0.22400
C956        C  0.42814108  0.76946683  0.25458339     0.20500
F957        F  0.45181316  0.76055855  0.23166993    -0.12300
F958        F  0.38672974  0.75143126  0.21525824    -0.14700
F959        F  0.42125471  0.79780483  0.34314966    -0.14700
F960        F  0.35585359  0.78859154  0.32780508    -0.12300
C961        C  0.25000585  0.59446930  0.24144188     0.25700
C962        C  0.22773867  0.61939940  0.23270789    -0.22400
C963        C  0.19590394  0.61030020  0.22019584     0.20600
C964        C  0.18603310  0.57687242  0.21797321     0.25600
C965        C  0.20770885  0.55219241  0.22839439    -0.22400
C966        C  0.23974881  0.56119548  0.24008425     0.20500
F967        F  0.26023675  0.53789877  0.25255949    -0.12300
F968        F  0.28093240  0.60236949  0.25349430    -0.14700
F969        F  0.15475290  0.56860136  0.20722257    -0.14700
F970        F  0.17427560  0.63376292  0.21041861    -0.12300
C971        C  0.29019653  0.87398436  0.23450588     0.25700
C972        C  0.26643919  0.87146950  0.26103510    -0.22400
C973        C  0.25431276  0.90040596  0.27595228     0.20600
C974        C  0.26446578  0.93139613  0.26325682     0.25600
C975        C  0.28596428  0.93370356  0.23485858    -0.22400
C976        C  0.29945808  0.90494382  0.22111091     0.20500
F977        F  0.31932903  0.90668667  0.19298103    -0.12300
F978        F  0.30184576  0.84628918  0.21931267    -0.14700
F979        F  0.25095768  0.95910499  0.27659808    -0.14700
F980        F  0.23152663  0.89858967  0.30166240    -0.12300
C981        C  0.21012235  0.78917744  0.39506918     0.25700
C982        C  0.22360367  0.76610225  0.37191843    -0.22400
C983        C  0.23170427  0.73469627  0.38446307     0.20600
C984        C  0.22870429  0.72743616  0.41940907     0.25600
C985        C  0.21775836  0.75134851  0.44286959    -0.22400
C986        C  0.20740119  0.78191307  0.43016218     0.20500
F987        F  0.19745920  0.80585357  0.45206463    -0.12300
F988        F  0.20151909  0.81963408  0.38412099    -0.14700
F989        F  0.23855228  0.69753632  0.43082349    -0.14700
F990        F  0.24284059  0.71098094  0.36292626    -0.12300
C991        C  0.12171055  0.71471135  0.50900512     0.25700
C992        C  0.10263013  0.74241577  0.51767050    -0.22400
C993        C  0.11985684  0.77295000  0.52346480     0.20600
C994        C  0.15466434  0.77580188  0.52011173     0.25600
C995        C  0.17351899  0.74836145  0.51118667    -0.22400
C996        C  0.15675304  0.71773788  0.50573779     0.20500
F997        F  0.17445571  0.69071962  0.49725759    -0.12300
F998        F  0.10649332  0.68491749  0.50278503    -0.14700
F999        F  0.16983948  0.80582291  0.52458364    -0.14700
F1000       F  0.10305228  0.80043213  0.53242669    -0.12300
C1001       C  0.09089666  0.73962863  0.27753446     0.25700
C1002       C  0.11874173  0.71980260  0.27210759    -0.22400
C1003       C  0.11558865  0.68545594  0.27691251     0.20600
C1004       C  0.08488919  0.67108578  0.28655282     0.25600
C1005       C  0.05676527  0.69082462  0.29127365    -0.22400
C1006       C  0.06010554  0.72525974  0.28674408     0.20500
F1007       F  0.03322082  0.74487583  0.28931797    -0.12300
F1008       F  0.09331022  0.77290821  0.27290399    -0.14700
F1009       F  0.08265274  0.63782694  0.29131333    -0.14700
F1010       F  0.14248225  0.66595484  0.27339178    -0.12300
C1011       C  0.90753145  0.66689771  0.30390974     0.25700
C1012       C  0.93664206  0.68611974  0.29757471    -0.22400
C1013       C  0.93423937  0.71575754  0.27912790     0.20600
C1014       C  0.90320550  0.72677475  0.26866116     0.25600
C1015       C  0.87412348  0.70761824  0.27500779    -0.22400
C1016       C  0.87645489  0.67755311  0.29265402     0.20500
F1017       F  0.84857442  0.65899491  0.29973183    -0.12300
F1018       F  0.90941976  0.63737091  0.32015638    -0.14700
F1019       F  0.90161444  0.75577292  0.25135957    -0.14700
F1020       F  0.96215924  0.73297032  0.26922884    -0.12300
C1021       C  0.01780594  0.68456342  0.37191924     0.25700
C1022       C  0.00072693  0.70253796  0.34705508    -0.22400
C1023       C  0.98620057  0.73259096  0.35703025     0.20600
C1024       C  0.98786881  0.74363902  0.39130336     0.25600
C1025       C  0.00385338  0.72471695  0.41626813    -0.22400
C1026       C  0.01950742  0.69549820  0.40575944     0.20500
F1027       F  0.03623228  0.67691207  0.42856749    -0.12300
F1028       F  0.03184790  0.65535456  0.36371234    -0.14700
F1029       F  0.97257144  0.77196654  0.40029210    -0.14700
F1030       F  0.97028569  0.75127476  0.33388441    -0.12300
C1031       C  0.01103438  0.72084983  0.67701960     0.25700
C1032       C  0.99709750  0.74700050  0.69538347    -0.22400
C1033       C  0.98654427  0.77486290  0.67711301     0.20600
C1034       C  0.98899850  0.77603928  0.64110698     0.25600
C1035       C  0.00145299  0.74901395  0.62253927    -0.22400
C1036       C  0.01305573  0.72170303  0.64125392     0.20500
F1037       F  0.02678995  0.69562818  0.62493272    -0.12300
F1038       F  0.02223584  0.69400238  0.69380269    -0.14700
F1039       F  0.97857995  0.80329750  0.62447607    -0.14700
F1040       F  0.97463433  0.80130277  0.69428152    -0.12300
C1041       C  0.79438836  0.78505384  0.39027321     0.25700
C1042       C  0.77982364  0.75974468  0.37007920    -0.22400
C1043       C  0.77159552  0.72897171  0.38495736     0.20600
C1044       C  0.77494945  0.72463156  0.42001739     0.25600
C1045       C  0.78608081  0.75105079  0.44057292    -0.22400
C1046       C  0.79714771  0.78082120  0.42548067     0.20500
F1047       F  0.80661257  0.80710608  0.44520071    -0.12300
F1048       F  0.80315250  0.81484642  0.37647636    -0.14700
F1049       F  0.76429553  0.69570386  0.43444885    -0.14700
F1050       F  0.75917236  0.70349946  0.36576788    -0.12300
C1051       C  0.85010317  0.78146031  0.51573261     0.25700
C1052       C  0.82953174  0.75445938  0.50628805    -0.22400
C1053       C  0.84407168  0.72345235  0.50119875     0.20600
C1054       C  0.87857059  0.71944196  0.50583320     0.25600
C1055       C  0.89952911  0.74665810  0.51476642    -0.22400
C1056       C  0.88462056  0.77779872  0.51958526     0.20500
F1057       F  0.90336644  0.80495823  0.52832638    -0.12300
F1058       F  0.83670882  0.81160042  0.52081698    -0.14700
F1059       F  0.89142092  0.68901723  0.50106275    -0.14700
F1060       F  0.82445709  0.69670433  0.49316140    -0.12300
C1061       C  0.07618173  0.71375492  0.76098738     0.25700
C1062       C  0.05766622  0.73897519  0.74573423    -0.22400
C1063       C  0.07480043  0.76501643  0.72932824     0.20600
C1064       C  0.10971685  0.76677869  0.72956170     0.25600
C1065       C  0.12852090  0.74250237  0.74652466    -0.22400
C1066       C  0.11123305  0.71544897  0.76137356     0.20500
F1067       F  0.12811092  0.69089201  0.77667264    -0.12300
F1068       F  0.06011754  0.68802257  0.77676505    -0.14700
F1069       F  0.12491326  0.79352449  0.71468952    -0.14700
F1070       F  0.05778818  0.79034066  0.71558138    -0.12300
C1071       C  0.26693488  0.60633858  0.80367173     0.25700
C1072       C  0.24524647  0.62570492  0.78385952    -0.22400
C1073       C  0.21924131  0.60919294  0.76610545     0.20600
C1074       C  0.21723200  0.57446477  0.76520412     0.25600
C1075       C  0.24083362  0.55531169  0.78229385    -0.22400
C1076       C  0.26479617  0.57159399  0.80273189     0.20500
F1077       F  0.28820578  0.55404516  0.81923661    -0.12300
F1078       F  0.29153224  0.62086129  0.82268610    -0.14700
F1079       F  0.19338517  0.55941775  0.74564281    -0.14700
F1080       F  0.19713856  0.62643536  0.74747440    -0.12300
C1081       C  0.44057867  0.78900194  0.76224174     0.25700
C1082       C  0.45090508  0.79916333  0.72948788    -0.22400
C1083       C  0.42673997  0.80191026  0.70387970     0.20600
C1084       C  0.39321889  0.79300511  0.71025858     0.25600
C1085       C  0.38316234  0.78014643  0.74233532    -0.22400
C1086       C  0.40714960  0.77956647  0.76864949     0.20500
F1087       F  0.39874745  0.76841316  0.80027962    -0.12300
F1088       F  0.46353923  0.78496745  0.78718179    -0.14700
F1089       F  0.37115906  0.79499547  0.68417330    -0.14700
F1090       F  0.43616296  0.81062810  0.67173730    -0.12300
C1091       C  0.22944799  0.79739589  0.61868125     0.25700
C1092       C  0.23744034  0.77206005  0.64164647    -0.22400
C1093       C  0.23827934  0.73929826  0.62933245     0.20600
C1094       C  0.23254545  0.73235198  0.59458840     0.25600
C1095       C  0.22605297  0.75794674  0.57138904    -0.22400
C1096       C  0.22475748  0.79055087  0.58388378     0.20500
F1097       F  0.22222164  0.81628268  0.56197235    -0.12300
F1098       F  0.22821853  0.82928381  0.62956382    -0.14700
F1099       F  0.23536161  0.70080149  0.58309612    -0.14700
F1100       F  0.24464027  0.71399179  0.65089216    -0.12300
C1101       C  0.22856993  0.71021849  0.88451690     0.25700
C1102       C  0.25687188  0.72711027  0.87064496    -0.22400
C1103       C  0.28188484  0.73836131  0.89339827     0.20600
C1104       C  0.27819734  0.73402508  0.92871925     0.25600
C1105       C  0.24942230  0.71842945  0.94264883    -0.22400
C1106       C  0.22488586  0.70604829  0.92012649     0.20500
F1107       F  0.19646556  0.69162545  0.93267970    -0.12300
F1108       F  0.20438835  0.69766025  0.86366374    -0.14700
F1109       F  0.30208254  0.74696882  0.94973062    -0.14700
F1110       F  0.30955022  0.75483180  0.88163730    -0.12300
C1111       C  0.29898383  0.89208887  0.70935289     0.25700
C1112       C  0.28003118  0.88100895  0.73771429    -0.22400
C1113       C  0.27199053  0.90408246  0.76319344     0.20600
C1114       C  0.28067122  0.93774630  0.75938562     0.25600
C1115       C  0.29657222  0.94941178  0.72949526    -0.22400
C1116       C  0.30652642  0.92608331  0.70493346     0.20500
F1117       F  0.32071852  0.93648716  0.67519544    -0.12300
F1118       F  0.30741045  0.87048595  0.68432269    -0.14700
F1119       F  0.27012612  0.95961855  0.78323662    -0.14700
F1120       F  0.25428080  0.89424357  0.79115390    -0.12300
C1121       C  0.63416808  0.79383605  0.71546693     0.25700
C1122       C  0.64279860  0.78995360  0.75017249    -0.22400
C1123       C  0.61713115  0.79305641  0.77486844     0.20600
C1124       C  0.58406733  0.79890743  0.76508890     0.25600
C1125       C  0.57559949  0.80182232  0.73048467    -0.22400
C1126       C  0.60109411  0.79960334  0.70589228     0.20500
F1127       F  0.59353362  0.80135910  0.67218946    -0.12300
F1128       F  0.65746744  0.79114700  0.69042521    -0.14700
F1129       F  0.55983329  0.79906435  0.78939042    -0.14700
F1130       F  0.62363309  0.78956471  0.80863726    -0.12300
C1131       C  0.77200572  0.61312566  0.79641426     0.25700
C1132       C  0.75145329  0.62798696  0.77193791    -0.22400
C1133       C  0.72829826  0.60781929  0.75411655     0.20600
C1134       C  0.72828982  0.57340428  0.75770035     0.25600
C1135       C  0.75165205  0.55817847  0.77887455    -0.22400
C1136       C  0.77222361  0.57839179  0.79973464     0.20500
F1137       F  0.79473258  0.56461901  0.82083228    -0.12300
F1138       F  0.79402096  0.63190706  0.81484349    -0.14700
F1139       F  0.70714165  0.55462599  0.73822193    -0.14700
F1140       F  0.70661347  0.62134550  0.73189691    -0.12300
C1141       C  0.79872355  0.75243999  0.61882993     0.25700
C1142       C  0.77796451  0.77466157  0.63633457    -0.22400
C1143       C  0.76084658  0.79840069  0.61766935     0.20600
C1144       C  0.76195388  0.79777878  0.58208364     0.25600
C1145       C  0.77934072  0.77284110  0.56481891    -0.22400
C1146       C  0.79832948  0.75073858  0.58349545     0.20500
F1147       F  0.81317975  0.72479259  0.56822355    -0.12300
F1148       F  0.81722364  0.73002958  0.63566950    -0.14700
F1149       F  0.74398865  0.82003340  0.56445014    -0.14700
F1150       F  0.74173194  0.82104856  0.63363740    -0.12300
C1151       C  0.72590356  0.73611658  0.91245480     0.25700
C1152       C  0.75184943  0.73023415  0.88904766    -0.22400
C1153       C  0.78162512  0.71626080  0.90096411     0.20600
C1154       C  0.78642114  0.71155352  0.93587155     0.25600
C1155       C  0.76153764  0.72028475  0.95905778    -0.22400
C1156       C  0.73091394  0.73143879  0.94719702     0.20500
F1157       F  0.70692569  0.74068733  0.96962073    -0.12300
F1158       F  0.69639163  0.74840778  0.90216129    -0.14700
F1159       F  0.81643788  0.70140539  0.94724729    -0.14700
F1160       F  0.80714495  0.70947434  0.87933673    -0.12300
C1161       C  0.72234535  0.90825727  0.77840219     0.25700
C1162       C  0.73489623  0.88594842  0.75378740    -0.22400
C1163       C  0.74558535  0.89881053  0.72200212     0.20600
C1164       C  0.74564216  0.93288484  0.71588434     0.25600
C1165       C  0.73466112  0.95498954  0.74102329    -0.22400
C1166       C  0.72230828  0.94239341  0.77200369     0.20500
F1167       F  0.71289274  0.96334314  0.79723060    -0.12300
F1168       F  0.71160043  0.89746660  0.80944798    -0.14700
F1169       F  0.75813282  0.94457069  0.68583856    -0.14700
F1170       F  0.75712906  0.87868067  0.69702390    -0.12300
C1171       C  0.88393734  0.71075850  0.73322494     0.25700
C1172       C  0.86245109  0.73290994  0.75001027    -0.22400
C1173       C  0.87625304  0.76313920  0.76202344     0.20600
C1174       C  0.91062515  0.77013374  0.75914223     0.25600
C1175       C  0.93223512  0.74730002  0.74402182    -0.22400
C1176       C  0.91838249  0.71791238  0.73030458     0.20500
F1177       F  0.93856516  0.69477136  0.71674120    -0.12300
F1178       F  0.87198070  0.68127184  0.72110769    -0.14700
F1179       F  0.92327118  0.79858384  0.77306626    -0.14700
F1180       F  0.85657095  0.78597639  0.77688953    -0.12300
loop_ 
_geom_bond_atom_site_label_1 
_geom_bond_atom_site_label_2 
_geom_bond_distance 
_geom_bond_site_symmetry_2 
_ccdc_geom_bond_type 
O1           Ni7   1.905       .  S
O1           C22   1.263       .  A
O2          Ni25   1.872       .  S
O2           C11   1.266       .  A
O3           Ni7   1.880       .  S
O3          Ni25   1.871       .  S
O3          Ni19   1.922       .  S
O3           H26   0.966       .  S
C4           O21   1.283       .  A
C4           O13   1.284       .  A
C4         C1162   1.496       .  S
O5          Ni24   1.949       .  S
O5           C11   1.283       .  A
O6          Ni24   1.918       .  S
O6            C8   1.272       .  A
Ni7          O10   1.919       .  S
Ni7          O12   1.910       .  S
C8           O18   1.277       .  A
C8         C1122   1.506       .  S
O9          Ni25   1.951       .  S
O9           C15   1.283       .  A
O10          C15   1.280       .  A
C11        C1152   1.477       .  S
O12          C14   1.263       .  A
O13         Ni24   1.945       .  S
C14          O20   1.276       .  A
C14        C1172   1.499       .  S
C15        C1132   1.490       .  S
H16          O17   0.966       .  S
O17         Ni25   1.905       .  S
O17         Ni19   1.881       .  S
O17         Ni24   1.880       .  S
O18         Ni19   1.947       .  S
Ni19         O23   1.914       .  S
Ni19         O21   1.915       .  S
O20         Ni25   1.952       .  S
C22          O23   1.274       .  A
C22        C1142   1.471       .  S
O27         Ni33   1.965       .  S
O27          C48   1.284       .  A
O28         Ni51   1.949       .  S
O28          C37   1.284       .  A
O29         Ni33   1.882       .  S
O29         Ni51   1.902       .  S
O29         Ni45   1.899       .  S
O29          H52   0.967       .  S
C30          O47   1.278       .  A
C30          O39   1.279       .  A
C30        C1112   1.492       .  S
O31         Ni50   1.912       .  S
O31          C37   1.267       .  A
O32         Ni50   1.914       .  S
O32          C34   1.267       .  A
Ni33         O36   1.942       .  S
Ni33         O38   1.913       .  S
C34          O44   1.276       .  A
C34        C1092   1.491       .  S
O35         Ni51   1.937       .  S
O35          C41   1.290       .  A
O36          C41   1.285       .  A
C37        C1065   1.496       .  S
O38          C40   1.272       .  A
O39         Ni50   1.930       .  S
C40          O46   1.280       .  A
C40        C1102   1.502       .  S
C41        C1072   1.501       .  S
H42          O43   0.966       .  S
O43         Ni51   1.931       .  S
O43         Ni45   1.892       .  S
O43         Ni50   1.890       .  S
O44         Ni45   1.948       .  S
Ni45         O49   1.894       .  S
Ni45         O47   1.945       .  S
O46         Ni51   1.956       .  S
C48          O49   1.270       .  A
C48        C1085   1.501       .  S
N53          C57   1.353       .  A
N53          C54   1.359       .  A
N53        C1052   1.449       .  S
C54        C1145   1.467       .  S
C54          C55   1.382       .  A
C55          C56   1.364       .  A
C55          H58   1.082       .  S
C56          C57   1.380       .  A
C56          H59   1.083       .  S
C57        C1045   1.458       .  S
N60          C64   1.369       .  A
N60          C61   1.368   1_655  A
N60        C1032   1.453       .  S
C61        C1062   1.484       .  S
C61          C62   1.379       .  A
C62          C63   1.366   1_455  A
C62          H65   1.082       .  S
C63          C64   1.382       .  A
C63          H66   1.083       .  S
C64        C1175   1.488       .  S
N67          C71   1.362       .  A
N67          C68   1.362   1_655  A
N67        C1022   1.456   1_655  S
C68        C1005   1.480       .  S
C68          C69   1.380       .  A
C69          C70   1.366   1_455  A
C69          H72   1.082       .  S
C70          C71   1.383       .  A
C70          H73   1.083       .  S
C71        C1012   1.474       .  S
O74         Ni82   1.963       .  S
O74          C84   1.291       .  A
O75         Ni82   1.964       .  S
O75          C85   1.292       .  A
O76         Ni82   1.908       .  S
O76          C86   1.278       .  A
O77         Ni82   1.906   1_655  S
O77          C87   1.277       .  A
O78         Ni83   1.959       .  S
O78          C87   1.291       .  A
O79         Ni83   1.957   1_455  S
O79          C86   1.290       .  A
O80         Ni83   1.907       .  S
O80          C85   1.278   1_655  A
O81         Ni83   1.898   1_455  S
O81          C84   1.276       .  A
Ni82        Ni83   2.378   1_455  S
C84        C1025   1.497       .  S
C85        C1035   1.506       .  S
C86         C992   1.505       .  S
C87        C1055   1.504       .  S
N88          C92   1.368       .  A
N88          C89   1.368       .  A
N88         C995   1.449       .  S
C89        C1095   1.485       .  S
C89          C90   1.379       .  A
C90          C91   1.368       .  A
C90          H93   1.082       .  S
C91          C92   1.382       .  A
C91          H94   1.083       .  S
C92         C985   1.490       .  S
O95        Ni101   1.922       .  S
O95         C116   1.273       .  A
O96        Ni119   1.893       .  S
O96         C105   1.268       .  A
O97        Ni101   1.908       .  S
O97        Ni119   1.897       .  S
O97        Ni113   1.917       .  S
O97         H120   0.966       .  S
C98         O115   1.280       .  A
C98         O107   1.282       .  A
C98         C962   1.477       .  S
O99        Ni118   1.956       .  S
O99         C105   1.281       .  A
O100       Ni118   1.918       .  S
O100        C102   1.273       .  A
Ni101       O104   1.923       .  S
Ni101       O106   1.919       .  S
C102        O112   1.279       .  A
C102        C945   1.504       .  S
O103       Ni119   1.914       .  S
O103        C109   1.271       .  A
O104        C109   1.275       .  A
C105        C952   1.494       .  S
O106        C108   1.270       .  A
O107       Ni118   1.935       .  S
C108        O114   1.279       .  A
C108        C982   1.500       .  S
C109        C972   1.472       .  S
H110        O111   0.967       .  S
O111       Ni119   1.891       .  S
O111       Ni113   1.889       .  S
O111       Ni118   1.893       .  S
O112       Ni113   1.951       .  S
Ni113       O117   1.907       .  S
Ni113       O115   1.911       .  S
O114       Ni119   1.951       .  S
C116        O117   1.273       .  A
C116       C1002   1.471       .  S
O121       Ni127   1.951       .  S
O121        C142   1.280       .  A
O122       Ni145   1.915       .  S
O122        C131   1.274       .  A
O123       Ni127   1.881       .  S
O123       Ni145   1.889       .  S
O123       Ni139   1.874       .  S
O123        H146   0.965       .  S
C124        O141   1.261       .  A
C124        O133   1.273       .  A
C124        C932   1.478       .  S
O125       Ni144   1.915       .  S
O125        C131   1.271       .  A
O126       Ni144   1.908       .  S
O126        C128   1.271       .  A
Ni127       O130   1.922       .  S
Ni127       O132   1.911       .  S
C128        O138   1.275       .  A
C128       C1042   1.468       .  S
O129       Ni145   1.922       .  S
O129        C135   1.285       .  A
O130        C135   1.281       .  A
C131       C1015   1.471       .  S
O132        C134   1.271       .  A
O133       Ni144   1.928       .  S
C134        O140   1.269       .  A
C134        C902   1.472       .  S
C135        C922   1.479       .  S
H136        O137   0.964       .  S
O137       Ni145   1.932       .  S
O137       Ni139   1.897       .  S
O137       Ni144   1.900       .  S
O138       Ni139   1.916       .  S
Ni139       O143   1.888       .  S
Ni139       O141   1.891       .  S
O140       Ni145   1.913       .  S
C142        O143   1.266       .  A
C142        C912   1.484       .  S
N147        C151   1.353   1_554  A
N147        C148   1.354       .  A
N147        C892   1.446       .  S
C148        C905   1.463       .  S
C148        C149   1.382       .  A
C149        C150   1.367       .  A
C149        H152   1.082       .  S
C150        C151   1.380   1_554  A
C150        H153   1.082   1_554  S
C151       C1155   1.458       .  S
N154        C158   1.368       .  A
N154        C155   1.366       .  A
N154        C882   1.446       .  S
C155       C1135   1.491       .  S
C155        C156   1.383       .  A
C156        C157   1.368       .  A
C156        H159   1.083       .  S
C157        C158   1.381       .  A
C157        H160   1.082       .  S
C158        C872   1.490       .  S
N161        C165   1.353       .  A
N161        C162   1.355   1_554  A
N161        C865   1.447   1_554  S
C162        C852   1.474       .  S
C162        C163   1.382       .  A
C163        C164   1.367   1_556  A
C163        H166   1.082       .  S
C164        C165   1.382       .  A
C164        H167   1.083       .  S
C165        C842   1.462       .  S
O168       Ni176   1.936       .  S
O168        C178   1.286       .  A
O169       Ni176   1.932   1_556  S
O169        C179   1.285       .  A
O170       Ni176   1.908   1_556  S
O170        C180   1.279   1_556  A
O171       Ni176   1.916       .  S
O171        C181   1.280       .  A
O172       Ni177   1.934       .  S
O172        C181   1.285       .  A
O173       Ni177   1.929       .  S
O173        C180   1.284       .  A
O174       Ni177   1.924   1_556  S
O174        C179   1.282       .  A
O175       Ni177   1.921       .  S
O175        C178   1.281       .  A
Ni176      Ni177   2.382       .  S
C178        C832   1.495       .  S
C179        C885   1.500       .  S
C180        C862   1.482   1_554  S
C181        C895   1.493       .  S
N182        C186   1.358       .  A
N182        C183   1.360       .  A
N182        C835   1.449       .  S
C183        C925   1.473       .  S
C183        C184   1.380       .  A
C184        C185   1.366       .  A
C184        H187   1.082       .  S
C185        C186   1.382       .  A
C185        H188   1.083       .  S
C186        C822   1.468       .  S
O189       Ni195   1.925       .  S
O189        C210   1.272       .  A
O190       Ni213   1.880       .  S
O190        C199   1.262       .  A
O191       Ni195   1.906       .  S
O191       Ni213   1.891       .  S
O191       Ni207   1.907       .  S
O191        H214   0.966       .  S
C192        O209   1.277       .  A
C192        O201   1.283       .  A
C192        C792   1.485       .  S
O193       Ni212   1.952       .  S
O193        C199   1.279       .  A
O194       Ni212   1.906       .  S
O194        C196   1.268       .  A
Ni195       O198   1.923       .  S
Ni195       O200   1.914       .  S
C196        O206   1.270       .  A
C196        C812   1.482       .  S
O197       Ni213   1.900       .  S
O197        C203   1.267       .  A
O198        C203   1.277       .  A
C199        C825   1.472       .  S
O200        C202   1.269       .  A
O201       Ni212   1.932       .  S
C202        O208   1.271       .  A
C202        C805   1.471       .  S
C203        C845   1.469       .  S
H204        O205   0.967       .  S
O205       Ni213   1.882       .  S
O205       Ni207   1.885       .  S
O205       Ni212   1.890       .  S
O206       Ni207   1.921       .  S
Ni207       O211   1.889       .  S
Ni207       O209   1.907       .  S
O208       Ni213   1.921       .  S
C210        O211   1.265       .  A
C210        C785   1.475       .  S
O215       Ni221   1.956       .  S
O215        C236   1.280       .  A
O216       Ni239   1.902       .  S
O216        C225   1.269       .  A
O217       Ni221   1.893       .  S
O217       Ni239   1.880       .  S
O217       Ni233   1.876       .  S
O217        H240   0.967       .  S
C218        O235   1.265       .  A
C218        O227   1.274       .  A
C218        C752   1.474       .  S
O219       Ni238   1.922       .  S
O219        C225   1.270       .  A
O220       Ni238   1.914       .  S
O220        C222   1.268       .  A
Ni221       O224   1.936       .  S
Ni221       O226   1.916       .  S
C222        O232   1.271       .  A
C222        C745   1.482       .  S
O223       Ni239   1.892       .  S
O223        C229   1.276       .  A
O224        C229   1.283       .  A
C225        C762   1.483       .  S
O226        C228   1.272       .  A
O227       Ni238   1.920       .  S
C228        O234   1.278       .  A
C228        C875   1.496       .  S
C229        C855   1.478       .  S
H230        O231   0.966       .  S
O231       Ni239   1.917       .  S
O231       Ni233   1.906       .  S
O231       Ni238   1.922       .  S
O232       Ni233   1.924       .  S
Ni233       O237   1.870       .  S
Ni233       O235   1.895       .  S
O234       Ni239   1.945       .  S
C236        O237   1.259       .  A
C236        C772   1.479       .  S
N241        C245   1.359       .  A
N241        C242   1.361   1_545  A
N241        C732   1.446       .  S
C242       C1165   1.478       .  S
C242        C243   1.382   1_565  A
C243        C244   1.369       .  A
C243        H246   1.082   1_545  S
C244        C245   1.380       .  A
C244        H247   1.082       .  S
C245        C742   1.474       .  S
N248        C252   1.365       .  A
N248        C249   1.367       .  A
N248        C722   1.449       .  S
C249       C1125   1.487       .  S
C249        C250   1.381       .  A
C250        C251   1.367       .  A
C250        H253   1.082       .  S
C251        C252   1.380       .  A
C251        H254   1.082       .  S
C252       C1082   1.483       .  S
N255        C259   1.367       .  A
N255        C256   1.368   1_545  A
N255        C712   1.445       .  S
C256       C1115   1.488       .  S
C256        C257   1.380       .  A
C257        C258   1.367   1_565  A
C257        H260   1.083       .  S
C258        C259   1.381       .  A
C258        H261   1.082       .  S
C259        C705   1.490       .  S
O262       Ni270   1.952       .  S
O262        C272   1.289       .  A
O263       Ni270   1.956       .  S
O263        C273   1.290       .  A
O264       Ni270   1.916   1_565  S
O264        C274   1.279       .  A
O265       Ni270   1.918       .  S
O265        C275   1.279       .  A
O266       Ni271   1.958       .  S
O266        C275   1.290       .  A
O267       Ni271   1.954   1_565  S
O267        C274   1.290       .  A
O268       Ni271   1.906       .  S
O268        C273   1.278       .  A
O269       Ni271   1.910       .  S
O269        C272   1.278       .  A
Ni270      Ni271   2.378       .  S
C272        C735   1.496       .  S
C273        C715   1.502       .  S
C274        C725   1.510       .  S
C275        C692   1.503       .  S
N276        C280   1.365       .  A
N276        C277   1.363       .  A
N276        C695   1.459       .  S
C277        C682   1.467       .  S
C277        C278   1.379       .  A
C278        C279   1.362       .  A
C278        H281   1.083       .  S
C279        C280   1.384       .  A
C279        H282   1.082       .  S
C280        C765   1.485       .  S
O283       Ni289   1.914       .  S
O283        C304   1.271       .  A
O284       Ni307   1.886       .  S
O284        C293   1.266       .  A
O285       Ni289   1.892       .  S
O285       Ni307   1.892       .  S
O285       Ni301   1.910       .  S
O285        H308   0.966       .  S
C286        O303   1.280       .  A
C286        O295   1.279       .  A
C286        C672   1.480       .  S
O287       Ni306   1.938       .  S
O287        C293   1.275       .  A
O288       Ni306   1.905       .  S
O288        C290   1.269       .  A
Ni289       O292   1.918       .  S
Ni289       O294   1.926       .  S
C290        O300   1.280       .  A
C290        C662   1.501       .  S
O291       Ni307   1.917       .  S
O291        C297   1.271       .  A
O292        C297   1.275       .  A
C293        C642   1.468       .  S
O294        C296   1.271       .  A
O295       Ni306   1.923       .  S
C296        O302   1.276       .  A
C296        C702   1.507       .  S
C297        C652   1.466       .  S
H298        O299   0.967       .  S
O299       Ni307   1.890       .  S
O299       Ni301   1.888       .  S
O299       Ni306   1.886       .  S
O300       Ni301   1.957       .  S
Ni301       O305   1.912       .  S
Ni301       O303   1.908       .  S
O302       Ni307   1.941       .  S
C304        O305   1.274       .  A
C304        C685   1.461       .  S
N309        C313   1.371       .  A
N309        C310   1.371   1_554  A
N309        C632   1.451       .  S
C310       C1105   1.491       .  S
C310        C311   1.380       .  A
C311        C312   1.365   1_556  A
C311        H314   1.083       .  S
C312        C313   1.381       .  A
C312        H315   1.082       .  S
C313        C942   1.493       .  S
N316        C320   1.368       .  A
N316        C317   1.367       .  A
N316        C622   1.450       .  S
C317       C1075   1.491       .  S
C317        C318   1.382       .  A
C318        C319   1.370       .  A
C318        H321   1.082       .  S
C319        C320   1.381       .  A
C319        H322   1.082       .  S
C320        C665   1.488       .  S
N323        C327   1.358       .  A
N323        C324   1.359   1_554  A
N323        C612   1.453       .  S
C324        C675   1.461       .  S
C324        C325   1.379       .  A
C325        C326   1.362   1_556  A
C325        H328   1.082       .  S
C326        C327   1.381       .  A
C326        H329   1.083       .  S
C327        C602   1.460       .  S
O330       Ni338   1.956       .  S
O330        C340   1.290       .  A
O331       Ni338   1.956       .  S
O331        C341   1.289       .  A
O332       Ni338   1.906       .  S
O332        C342   1.278       .  A
O333       Ni338   1.913   1_556  S
O333        C343   1.279       .  A
O334       Ni339   1.945   1_556  S
O334        C343   1.288       .  A
O335       Ni339   1.948       .  S
O335        C342   1.288       .  A
O336       Ni339   1.905       .  S
O336        C341   1.278       .  A
O337       Ni339   1.913       .  S
O337        C340   1.279       .  A
Ni338      Ni339   2.380       .  S
C340        C635   1.506       .  S
C341        C615   1.493       .  S
C342        C592   1.499       .  S
C343        C625   1.495       .  S
N344        C348   1.363       .  A
N344        C345   1.357       .  A
N344        C595   1.448       .  S
C345        C965   1.471       .  S
C345        C346   1.379       .  A
C346        C347   1.371       .  A
C346        H349   1.082       .  S
C347        C348   1.384       .  A
C347        H350   1.082       .  S
C348        C585   1.484       .  S
N351        C355   1.359       .  A
N351        C352   1.358       .  A
N351        C572   1.444       .  S
C352        C915   1.473       .  S
C352        C353   1.380       .  A
C353        C354   1.369       .  A
C353        H356   1.082       .  S
C354        C355   1.381       .  A
C354        H357   1.082       .  S
C355        C955   1.473       .  S
N358        C362   1.359   1_565  A
N358        C359   1.355       .  A
N358        C565   1.452       .  S
C359        C935   1.463       .  S
C359        C360   1.380       .  A
C360        C361   1.364       .  A
C360        H363   1.083       .  S
C361        C362   1.384   1_565  A
C361        H364   1.082   1_565  S
C362        C782   1.479       .  S
N365        C369   1.353       .  A
N365        C366   1.355   1_565  A
N365        C552   1.441       .  S
C366        C542   1.470       .  S
C366        C367   1.380       .  A
C367        C368   1.371   1_545  A
C367        H370   1.082       .  S
C368        C369   1.382       .  A
C368        H371   1.082       .  S
C369        C975   1.468       .  S
O372       Ni380   1.921   1_565  S
O372        C382   1.282       .  A
O373       Ni380   1.922       .  S
O373        C383   1.282       .  A
O374       Ni380   1.933   1_565  S
O374        C384   1.284       .  A
O375       Ni380   1.933       .  S
O375        C385   1.285   1_545  A
O376       Ni381   1.922       .  S
O376        C385   1.281       .  A
O377       Ni381   1.911       .  S
O377        C384   1.281       .  A
O378       Ni381   1.932   1_545  S
O378        C383   1.285       .  A
O379       Ni381   1.930       .  S
O379        C382   1.283       .  A
Ni380      Ni381   2.381   1_545  S
C382        C575   1.492       .  S
C383        C532   1.500       .  S
C384        C555   1.492       .  S
C385        C562   1.493       .  S
N386        C390   1.356       .  A
N386        C387   1.360       .  A
N386        C535   1.443       .  S
C387        C525   1.476       .  S
C387        C388   1.383       .  A
C388        C389   1.370       .  A
C388        H391   1.082       .  S
C389        C390   1.379       .  A
C389        H392   1.082       .  S
C390        C802   1.470       .  S
N393        C397   1.352       .  A
N393        C394   1.355       .  A
N393        C512   1.447       .  S
C394        C795   1.479       .  S
C394        C395   1.382       .  A
C395        C396   1.373       .  A
C395        H398   1.082       .  S
C396        C397   1.384       .  A
C396        H399   1.083       .  S
C397        C755   1.464       .  S
N400        C404   1.353       .  A
N400        C401   1.353   1_455  A
N400        C505   1.445       .  S
C401        C775   1.460       .  S
C401        C402   1.381       .  A
C402        C403   1.367   1_655  A
C402        H405   1.083       .  S
C403        C404   1.381       .  A
C403        H406   1.082       .  S
C404        C645   1.462       .  S
N407        C411   1.357   1_655  A
N407        C408   1.358       .  A
N407        C492   1.449       .  S
C408        C815   1.468       .  S
C408        C409   1.382       .  A
C409        C410   1.366   1_655  A
C409        H412   1.082       .  S
C410        C411   1.380       .  A
C410        H413   1.082       .  S
C411        C482   1.468       .  S
O414       Ni422   1.936       .  S
O414        C424   1.285       .  A
O415       Ni422   1.934       .  S
O415        C425   1.286       .  A
O416       Ni422   1.897   1_655  S
O416        C426   1.277       .  A
O417       Ni422   1.910       .  S
O417        C427   1.279       .  A
O418       Ni423   1.936       .  S
O418        C427   1.286       .  A
O419       Ni423   1.932   1_655  S
O419        C426   1.285       .  A
O420       Ni423   1.924       .  S
O420        C425   1.282       .  A
O421       Ni423   1.926       .  S
O421        C424   1.283       .  A
Ni422      Ni423   2.381       .  S
C424        C495   1.496       .  S
C425        C502   1.502       .  S
C426        C515   1.479       .  S
C427        C472   1.496       .  S
N428        C432   1.355       .  A
N428        C429   1.356       .  A
N428        C475   1.444       .  S
C429        C465   1.468       .  S
C429        C430   1.379       .  A
C430        C431   1.369       .  A
C430        H433   1.082       .  S
C431        C432   1.384       .  A
C431        H434   1.083       .  S
C432        C655   1.471       .  S
O435       Ni441   1.945       .  S
O435        C456   1.279       .  A
O436       Ni459   1.921       .  S
O436        C445   1.274       .  A
O437       Ni441   1.884       .  S
O437       Ni459   1.890       .  S
O437       Ni453   1.890       .  S
O437        H460   0.966       .  S
C438        O455   1.272       .  A
C438        O447   1.275       .  A
C438        C522   1.481       .  S
O439       Ni458   1.921       .  S
O439        C445   1.271       .  A
O440       Ni458   1.907       .  S
O440        C442   1.268       .  A
Ni441       O444   1.936       .  S
Ni441       O446   1.907       .  S
C442        O452   1.272       .  A
C442        C605   1.473       .  S
O443       Ni459   1.901       .  S
O443        C449   1.278       .  A
O444        C449   1.281       .  A
C445        C582   1.491       .  S
O446        C448   1.270       .  A
O447       Ni458   1.922       .  S
C448        O454   1.271       .  A
C448        C462   1.474       .  S
C449        C485   1.484       .  S
H450        O451   0.965       .  S
O451       Ni459   1.919       .  S
O451       Ni453   1.897       .  S
O451       Ni458   1.895       .  S
O452       Ni453   1.916       .  S
Ni453       O457   1.891       .  S
Ni453       O455   1.922       .  S
O454       Ni459   1.926       .  S
C456        O457   1.268       .  A
C456        C545   1.478       .  S
C461        C462   1.405       .  A
C461        C466   1.394       .  A
C461        F468   1.358       .  S
C462        C463   1.411       .  A
C463        C464   1.397       .  A
C463        F470   1.358       .  S
C464        C465   1.399       .  A
C464        F469   1.358       .  S
C465        C466   1.404       .  A
C466        F467   1.358       .  S
C471        C472   1.412       .  A
C471        C476   1.404       .  A
C471        F478   1.358       .  S
C472        C473   1.415       .  A
C473        C474   1.400       .  A
C473        F480   1.358       .  S
C474        C475   1.401       .  A
C474        F479   1.357       .  S
C475        C476   1.405       .  A
C476        F477   1.357       .  S
C481        C482   1.401       .  A
C481        C486   1.396       .  A
C481        F488   1.358       .  S
C482        C483   1.401       .  A
C483        C484   1.392       .  A
C483        F490   1.358       .  S
C484        C485   1.410       .  A
C484        F489   1.356       .  S
C485        C486   1.415       .  A
C486        F487   1.358       .  S
C491        C492   1.406   1_455  A
C491        C496   1.403       .  A
C491        F498   1.357       .  S
C492        C493   1.406       .  A
C493        C494   1.409       .  A
C493        F500   1.357       .  S
C494        C495   1.413   1_655  A
C494        F499   1.358       .  S
C495        C496   1.409       .  A
C496        F497   1.358       .  S
C501        C502   1.418       .  A
C501        C506   1.407       .  A
C501        F508   1.357   1_455  S
C502        C503   1.412       .  A
C503        C504   1.401       .  A
C503        F510   1.357       .  S
C504        C505   1.404       .  A
C504        F509   1.357       .  S
C505        C506   1.402       .  A
C506        F507   1.356   1_455  S
C511        C512   1.406       .  A
C511        C516   1.395       .  A
C511        F518   1.358       .  S
C512        C513   1.411       .  A
C513        C514   1.400       .  A
C513        F520   1.353       .  S
C514        C515   1.404       .  A
C514        F519   1.358       .  S
C515        C516   1.408       .  A
C516        F517   1.359       .  S
C521        C522   1.404       .  A
C521        C526   1.397       .  A
C521        F528   1.358       .  S
C522        C523   1.411       .  A
C523        C524   1.403       .  A
C523        F530   1.358       .  S
C524        C525   1.403       .  A
C524        F529   1.358       .  S
C525        C526   1.406       .  A
C526        F527   1.358       .  S
C531        C532   1.412       .  A
C531        C536   1.401       .  A
C531        F538   1.357       .  S
C532        C533   1.417       .  A
C533        C534   1.405       .  A
C533        F540   1.357       .  S
C534        C535   1.402       .  A
C534        F539   1.357       .  S
C535        C536   1.403       .  A
C536        F537   1.356       .  S
C541        C542   1.402       .  A
C541        C546   1.399       .  A
C541        F548   1.358       .  S
C542        C543   1.403       .  A
C543        C544   1.395       .  A
C543        F550   1.358       .  S
C544        C545   1.408       .  A
C544        F549   1.358       .  S
C545        C546   1.409       .  A
C546        F547   1.358       .  S
C551        C552   1.402   1_545  A
C551        C556   1.393       .  A
C551        F558   1.358       .  S
C552        C553   1.404       .  A
C553        C554   1.409       .  A
C553        F560   1.357       .  S
C554        C555   1.414       .  A
C554        F559   1.357       .  S
C555        C556   1.410   1_565  A
C556        F557   1.358       .  S
C561        C562   1.412       .  A
C561        C566   1.406       .  A
C561        F568   1.358       .  S
C562        C563   1.407   1_565  A
C563        C564   1.402       .  A
C563        F570   1.358       .  S
C564        C565   1.409   1_545  A
C564        F569   1.357       .  S
C565        C566   1.407       .  A
C566        F567   1.356       .  S
C571        C572   1.404       .  A
C571        C576   1.407       .  A
C571        F578   1.355       .  S
C572        C573   1.404       .  A
C573        C574   1.399       .  A
C573        F580   1.357       .  S
C574        C575   1.409       .  A
C574        F579   1.358       .  S
C575        C576   1.412       .  A
C576        F577   1.357       .  S
C581        C582   1.414       .  A
C581        C586   1.394       .  A
C581        F588   1.358       .  S
C582        C583   1.409       .  A
C583        C584   1.403       .  A
C583        F590   1.356       .  S
C584        C585   1.410       .  A
C584        F589   1.358       .  S
C585        C586   1.402       .  A
C586        F587   1.356       .  S
C591        C592   1.415       .  A
C591        C596   1.399       .  A
C591        F598   1.358       .  S
C592        C593   1.411       .  A
C593        C594   1.408       .  A
C593        F600   1.357       .  S
C594        C595   1.408       .  A
C594        F599   1.354       .  S
C595        C596   1.402       .  A
C596        F597   1.358       .  S
C601        C602   1.402       .  A
C601        C606   1.393       .  A
C601        F608   1.358       .  S
C602        C603   1.402       .  A
C603        C604   1.398       .  A
C603        F610   1.358       .  S
C604        C605   1.408       .  A
C604        F609   1.358       .  S
C605        C606   1.407       .  A
C606        F607   1.358       .  S
C611        C612   1.412       .  A
C611        C616   1.413       .  A
C611        F618   1.356       .  S
C612        C613   1.406   1_554  A
C613        C614   1.398       .  A
C613        F620   1.356       .  S
C614        C615   1.409   1_556  A
C614        F619   1.358       .  S
C615        C616   1.409       .  A
C616        F617   1.357       .  S
C621        C622   1.408       .  A
C621        C626   1.407       .  A
C621        F628   1.356       .  S
C622        C623   1.406       .  A
C623        C624   1.403       .  A
C623        F630   1.357       .  S
C624        C625   1.412       .  A
C624        F629   1.358       .  S
C625        C626   1.409       .  A
C626        F627   1.357       .  S
C631        C632   1.408       .  A
C631        C636   1.411       .  A
C631        F638   1.357       .  S
C632        C633   1.402   1_554  A
C633        C634   1.407       .  A
C633        F640   1.357       .  S
C634        C635   1.417   1_556  A
C634        F639   1.358       .  S
C635        C636   1.411       .  A
C636        F637   1.357       .  S
C641        C642   1.407       .  A
C641        C646   1.395       .  A
C641        F648   1.358       .  S
C642        C643   1.406       .  A
C643        C644   1.393       .  A
C643        F650   1.358       .  S
C644        C645   1.401       .  A
C644        F649   1.358       .  S
C645        C646   1.403       .  A
C646        F647   1.358       .  S
C651        C652   1.403       .  A
C651        C656   1.400       .  A
C651        F658   1.358       .  S
C652        C653   1.403       .  A
C653        C654   1.394       .  A
C653        F660   1.358       .  S
C654        C655   1.403       .  A
C654        F659   1.358       .  S
C655        C656   1.407       .  A
C656        F657   1.357       .  S
C661        C662   1.410       .  A
C661        C666   1.406       .  A
C661        F668   1.358       .  S
C662        C663   1.418       .  A
C663        C664   1.404       .  A
C663        F670   1.358       .  S
C664        C665   1.401       .  A
C664        F669   1.358       .  S
C665        C666   1.409       .  A
C666        F667   1.358       .  S
C671        C672   1.415       .  A
C671        C676   1.393       .  A
C671        F678   1.358       .  S
C672        C673   1.410       .  A
C673        C674   1.393       .  A
C673        F680   1.358       .  S
C674        C675   1.401       .  A
C674        F679   1.358       .  S
C675        C676   1.396       .  A
C676        F677   1.358       .  S
C681        C682   1.405       .  A
C681        C686   1.401       .  A
C681        F688   1.358       .  S
C682        C683   1.405       .  A
C683        C684   1.392       .  A
C683        F690   1.359       .  S
C684        C685   1.401       .  A
C684        F689   1.358       .  S
C685        C686   1.404       .  A
C686        F687   1.358       .  S
C691        C692   1.409       .  A
C691        C696   1.412       .  A
C691        F698   1.357       .  S
C692        C693   1.412       .  A
C693        C694   1.405       .  A
C693        F700   1.358       .  S
C694        C695   1.408       .  A
C694        F699   1.357       .  S
C695        C696   1.413       .  A
C696        F697   1.353       .  S
C701        C702   1.411       .  A
C701        C706   1.402       .  A
C701        F708   1.358       .  S
C702        C703   1.419       .  A
C703        C704   1.410       .  A
C703        F710   1.357       .  S
C704        C705   1.404       .  A
C704        F709   1.357       .  S
C705        C706   1.408       .  A
C706        F707   1.358       .  S
C711        C712   1.406       .  A
C711        C716   1.413       .  A
C711        F718   1.356       .  S
C712        C713   1.400       .  A
C713        C714   1.399       .  A
C713        F720   1.357       .  S
C714        C715   1.416       .  A
C714        F719   1.358       .  S
C715        C716   1.413       .  A
C716        F717   1.357       .  S
C721        C722   1.407       .  A
C721        C726   1.409       .  A
C721        F728   1.357       .  S
C722        C723   1.400       .  A
C723        C724   1.408       .  A
C723        F730   1.356       .  S
C724        C725   1.421       .  A
C724        F729   1.357       .  S
C725        C726   1.412       .  A
C726        F727   1.357       .  S
C731        C732   1.402       .  A
C731        C736   1.404       .  A
C731        F738   1.357   1_545  S
C732        C733   1.407       .  A
C733        C734   1.408       .  A
C733        F740   1.357       .  S
C734        C735   1.408       .  A
C734        F739   1.357       .  S
C735        C736   1.414       .  A
C736        F737   1.358   1_545  S
C741        C742   1.404       .  A
C741        C746   1.403       .  A
C741        F748   1.358       .  S
C742        C743   1.403       .  A
C743        C744   1.397       .  A
C743        F750   1.358       .  S
C744        C745   1.407       .  A
C744        F749   1.358       .  S
C745        C746   1.410       .  A
C746        F747   1.358       .  S
C751        C752   1.415       .  A
C751        C756   1.399       .  A
C751        F758   1.358       .  S
C752        C753   1.403       .  A
C753        C754   1.390       .  A
C753        F760   1.358       .  S
C754        C755   1.405       .  A
C754        F759   1.358       .  S
C755        C756   1.397       .  A
C756        F757   1.358       .  S
C761        C762   1.411       .  A
C761        C766   1.399       .  A
C761        F768   1.358       .  S
C762        C763   1.404       .  A
C763        C764   1.395       .  A
C763        F770   1.355       .  S
C764        C765   1.410       .  A
C764        F769   1.358       .  S
C765        C766   1.406       .  A
C766        F767   1.356       .  S
C771        C772   1.415       .  A
C771        C776   1.394       .  A
C771        F778   1.358       .  S
C772        C773   1.406       .  A
C773        C774   1.397       .  A
C773        F780   1.358       .  S
C774        C775   1.404       .  A
C774        F779   1.358       .  S
C775        C776   1.397       .  A
C776        F777   1.358       .  S
C781        C782   1.407       .  A
C781        C786   1.392       .  A
C781        F788   1.358       .  S
C782        C783   1.408       .  A
C783        C784   1.392       .  A
C783        F790   1.355       .  S
C784        C785   1.406       .  A
C784        F789   1.358       .  S
C785        C786   1.406       .  A
C786        F787   1.356       .  S
C791        C792   1.408       .  A
C791        C796   1.389       .  A
C791        F798   1.358       .  S
C792        C793   1.411       .  A
C793        C794   1.398       .  A
C793        F800   1.355       .  S
C794        C795   1.405       .  A
C794        F799   1.358       .  S
C795        C796   1.406       .  A
C796        F797   1.355       .  S
C801        C802   1.404       .  A
C801        C806   1.399       .  A
C801        F808   1.358       .  S
C802        C803   1.403       .  A
C803        C804   1.397       .  A
C803        F810   1.357       .  S
C804        C805   1.404       .  A
C804        F809   1.358       .  S
C805        C806   1.406       .  A
C806        F807   1.358       .  S
C811        C812   1.413       .  A
C811        C816   1.401       .  A
C811        F818   1.358       .  S
C812        C813   1.408       .  A
C813        C814   1.393       .  A
C813        F820   1.358       .  S
C814        C815   1.403       .  A
C814        F819   1.359       .  S
C815        C816   1.400       .  A
C816        F817   1.358       .  S
C821        C822   1.404       .  A
C821        C826   1.397       .  A
C821        F828   1.358       .  S
C822        C823   1.404       .  A
C823        C824   1.397       .  A
C823        F830   1.358       .  S
C824        C825   1.405       .  A
C824        F829   1.358       .  S
C825        C826   1.406       .  A
C826        F827   1.358       .  S
C831        C832   1.412       .  A
C831        C836   1.405       .  A
C831        F838   1.357       .  S
C832        C833   1.410       .  A
C833        C834   1.404       .  A
C833        F840   1.358       .  S
C834        C835   1.408       .  A
C834        F839   1.357       .  S
C835        C836   1.405       .  A
C836        F837   1.357       .  S
C841        C842   1.406       .  A
C841        C846   1.391       .  A
C841        F848   1.359       .  S
C842        C843   1.398       .  A
C843        C844   1.396       .  A
C843        F850   1.358       .  S
C844        C845   1.411       .  A
C844        F849   1.358       .  S
C845        C846   1.402       .  A
C846        F847   1.358       .  S
C851        C852   1.408       .  A
C851        C856   1.395       .  A
C851        F858   1.357       .  S
C852        C853   1.402       .  A
C853        C854   1.389       .  A
C853        F860   1.358       .  S
C854        C855   1.409       .  A
C854        F859   1.356       .  S
C855        C856   1.407       .  A
C856        F857   1.358       .  S
C861        C862   1.409       .  A
C861        C866   1.399       .  A
C861        F868   1.358       .  S
C862        C863   1.406   1_556  A
C863        C864   1.401       .  A
C863        F870   1.358       .  S
C864        C865   1.408   1_554  A
C864        F869   1.353       .  S
C865        C866   1.407       .  A
C866        F867   1.358       .  S
C871        C872   1.408       .  A
C871        C876   1.403       .  A
C871        F878   1.358       .  S
C872        C873   1.405       .  A
C873        C874   1.409       .  A
C873        F880   1.357       .  S
C874        C875   1.413       .  A
C874        F879   1.358       .  S
C875        C876   1.409       .  A
C876        F877   1.358       .  S
C881        C882   1.404       .  A
C881        C886   1.403       .  A
C881        F888   1.357       .  S
C882        C883   1.405       .  A
C883        C884   1.405       .  A
C883        F890   1.357       .  S
C884        C885   1.413       .  A
C884        F889   1.357       .  S
C885        C886   1.415       .  A
C886        F887   1.358       .  S
C891        C892   1.403       .  A
C891        C896   1.402       .  A
C891        F898   1.355   1_554  S
C892        C893   1.406       .  A
C893        C894   1.404       .  A
C893        F900   1.357       .  S
C894        C895   1.410       .  A
C894        F899   1.358       .  S
C895        C896   1.412       .  A
C896        F897   1.358   1_554  S
C901        C902   1.409       .  A
C901        C906   1.389       .  A
C901        F908   1.358       .  S
C902        C903   1.408       .  A
C903        C904   1.398       .  A
C903        F910   1.358       .  S
C904        C905   1.403       .  A
C904        F909   1.358       .  S
C905        C906   1.399       .  A
C906        F907   1.358       .  S
C911        C912   1.410       .  A
C911        C916   1.399       .  A
C911        F918   1.358       .  S
C912        C913   1.410       .  A
C913        C914   1.399       .  A
C913        F920   1.358       .  S
C914        C915   1.403       .  A
C914        F919   1.358       .  S
C915        C916   1.403       .  A
C916        F917   1.358       .  S
C921        C922   1.414       .  A
C921        C926   1.391       .  A
C921        F928   1.359       .  S
C922        C923   1.403       .  A
C923        C924   1.399       .  A
C923        F930   1.358       .  S
C924        C925   1.410       .  A
C924        F929   1.358       .  S
C925        C926   1.398       .  A
C926        F927   1.357       .  S
C931        C932   1.416       .  A
C931        C936   1.396       .  A
C931        F938   1.358       .  S
C932        C933   1.404       .  A
C933        C934   1.395       .  A
C933        F940   1.358       .  S
C934        C935   1.407       .  A
C934        F939   1.359       .  S
C935        C936   1.395       .  A
C936        F937   1.358       .  S
C941        C942   1.410       .  A
C941        C946   1.405       .  A
C941        F948   1.358       .  S
C942        C943   1.405       .  A
C943        C944   1.409       .  A
C943        F950   1.357       .  S
C944        C945   1.417       .  A
C944        F949   1.358       .  S
C945        C946   1.409       .  A
C946        F947   1.357       .  S
C951        C952   1.411       .  A
C951        C956   1.400       .  A
C951        F958   1.357       .  S
C952        C953   1.415       .  A
C953        C954   1.401       .  A
C953        F960   1.358       .  S
C954        C955   1.401       .  A
C954        F959   1.358       .  S
C955        C956   1.403       .  A
C956        F957   1.358       .  S
C961        C962   1.407       .  A
C961        C966   1.397       .  A
C961        F968   1.358       .  S
C962        C963   1.408       .  A
C963        C964   1.400       .  A
C963        F970   1.358       .  S
C964        C965   1.402       .  A
C964        F969   1.357       .  S
C965        C966   1.404       .  A
C966        F967   1.358       .  S
C971        C972   1.409       .  A
C971        C976   1.399       .  A
C971        F978   1.358       .  S
C972        C973   1.403       .  A
C973        C974   1.399       .  A
C973        F980   1.358       .  S
C974        C975   1.406       .  A
C974        F979   1.358       .  S
C975        C976   1.400       .  A
C976        F977   1.358       .  S
C981        C982   1.414       .  A
C981        C986   1.409       .  A
C981        F988   1.358       .  S
C982        C983   1.408       .  A
C983        C984   1.405       .  A
C983        F990   1.358       .  S
C984        C985   1.408       .  A
C984        F989   1.358       .  S
C985        C986   1.406       .  A
C986        F987   1.357       .  S
C991        C992   1.412       .  A
C991        C996   1.412       .  A
C991        F998   1.357       .  S
C992        C993   1.416       .  A
C993        C994   1.403       .  A
C993       F1000   1.358       .  S
C994        C995   1.400       .  A
C994        F999   1.354       .  S
C995        C996   1.409       .  A
C996        F997   1.357       .  S
C1001      C1002   1.405       .  A
C1001      C1006   1.397       .  A
C1001      F1008   1.358       .  S
C1002      C1003   1.403       .  A
C1003      C1004   1.398       .  A
C1003      F1010   1.358       .  S
C1004      C1005   1.409       .  A
C1004      F1009   1.358       .  S
C1005      C1006   1.406       .  A
C1006      F1007   1.357       .  S
C1011      C1012   1.407       .  A
C1011      C1016   1.401       .  A
C1011      F1018   1.358       .  S
C1012      C1013   1.406       .  A
C1013      C1014   1.395       .  A
C1013      F1020   1.358       .  S
C1014      C1015   1.404       .  A
C1014      F1019   1.358       .  S
C1015      C1016   1.405       .  A
C1016      F1017   1.358       .  S
C1021      C1022   1.407       .  A
C1021      C1026   1.397       .  A
C1021      F1028   1.358       .  S
C1022      C1023   1.413   1_455  A
C1023      C1024   1.415       .  A
C1023      F1030   1.353       .  S
C1024      C1025   1.409   1_655  A
C1024      F1029   1.357       .  S
C1025      C1026   1.411       .  A
C1026      F1027   1.359       .  S
C1031      C1032   1.403   1_455  A
C1031      C1036   1.403       .  A
C1031      F1038   1.357       .  S
C1032      C1033   1.411       .  A
C1033      C1034   1.414       .  A
C1033      F1040   1.357       .  S
C1034      C1035   1.411   1_655  A
C1034      F1039   1.357       .  S
C1035      C1036   1.416       .  A
C1036      F1037   1.358       .  S
C1041      C1042   1.407       .  A
C1041      C1046   1.395       .  A
C1041      F1048   1.358       .  S
C1042      C1043   1.406       .  A
C1043      C1044   1.392       .  A
C1043      F1050   1.358       .  S
C1044      C1045   1.400       .  A
C1044      F1049   1.358       .  S
C1045      C1046   1.403       .  A
C1046      F1047   1.358       .  S
C1051      C1052   1.400       .  A
C1051      C1056   1.404       .  A
C1051      F1058   1.357       .  S
C1052      C1053   1.408       .  A
C1053      C1054   1.409       .  A
C1053      F1060   1.357       .  S
C1054      C1055   1.411       .  A
C1054      F1059   1.357       .  S
C1055      C1056   1.418       .  A
C1056      F1057   1.358       .  S
C1061      C1062   1.411       .  A
C1061      C1066   1.405       .  A
C1061      F1068   1.358       .  S
C1062      C1063   1.398       .  A
C1063      C1064   1.399       .  A
C1063      F1070   1.358       .  S
C1064      C1065   1.420       .  A
C1064      F1069   1.358       .  S
C1065      C1066   1.405       .  A
C1066      F1067   1.357       .  S
C1071      C1072   1.419       .  A
C1071      C1076   1.405       .  A
C1071      F1078   1.358       .  S
C1072      C1073   1.408       .  A
C1073      C1074   1.404       .  A
C1073      F1080   1.357       .  S
C1074      C1075   1.410       .  A
C1074      F1079   1.358       .  S
C1075      C1076   1.402       .  A
C1076      F1077   1.357       .  S
C1081      C1082   1.406       .  A
C1081      C1086   1.405       .  A
C1081      F1088   1.358       .  S
C1082      C1083   1.404       .  A
C1083      C1084   1.404       .  A
C1083      F1090   1.358       .  S
C1084      C1085   1.414       .  A
C1084      F1089   1.358       .  S
C1085      C1086   1.413       .  A
C1086      F1087   1.358       .  S
C1091      C1092   1.409       .  A
C1091      C1096   1.402       .  A
C1091      F1098   1.358       .  S
C1092      C1093   1.409       .  A
C1093      C1094   1.407       .  A
C1093      F1100   1.358       .  S
C1094      C1095   1.408       .  A
C1094      F1099   1.358       .  S
C1095      C1096   1.406       .  A
C1096      F1097   1.356       .  S
C1101      C1102   1.416       .  A
C1101      C1106   1.412       .  A
C1101      F1108   1.357       .  S
C1102      C1103   1.410       .  A
C1103      C1104   1.402       .  A
C1103      F1110   1.358       .  S
C1104      C1105   1.409       .  A
C1104      F1109   1.358       .  S
C1105      C1106   1.405       .  A
C1106      F1107   1.357       .  S
C1111      C1112   1.411       .  A
C1111      C1116   1.410       .  A
C1111      F1118   1.358       .  S
C1112      C1113   1.406       .  A
C1113      C1114   1.403       .  A
C1113      F1120   1.358       .  S
C1114      C1115   1.407       .  A
C1114      F1119   1.358       .  S
C1115      C1116   1.408       .  A
C1116      F1117   1.357       .  S
C1121      C1122   1.414       .  A
C1121      C1126   1.404       .  A
C1121      F1128   1.358       .  S
C1122      C1123   1.417       .  A
C1123      C1124   1.407       .  A
C1123      F1130   1.358       .  S
C1124      C1125   1.404       .  A
C1124      F1129   1.357       .  S
C1125      C1126   1.406       .  A
C1126      F1127   1.358       .  S
C1131      C1132   1.412       .  A
C1131      C1136   1.410       .  A
C1131      F1138   1.358       .  S
C1132      C1133   1.406       .  A
C1133      C1134   1.398       .  A
C1133      F1140   1.358       .  S
C1134      C1135   1.408       .  A
C1134      F1139   1.358       .  S
C1135      C1136   1.408       .  A
C1136      F1137   1.357       .  S
C1141      C1142   1.414       .  A
C1141      C1146   1.386       .  A
C1141      F1148   1.359       .  S
C1142      C1143   1.402       .  A
C1143      C1144   1.394       .  A
C1143      F1150   1.358       .  S
C1144      C1145   1.409       .  A
C1144      F1149   1.358       .  S
C1145      C1146   1.398       .  A
C1146      F1147   1.355       .  S
C1151      C1152   1.408       .  A
C1151      C1156   1.390       .  A
C1151      F1158   1.358       .  S
C1152      C1153   1.415       .  A
C1153      C1154   1.396       .  A
C1153      F1160   1.358       .  S
C1154      C1155   1.397       .  A
C1154      F1159   1.358       .  S
C1155      C1156   1.400       .  A
C1156      F1157   1.358       .  S
C1161      C1162   1.417       .  A
C1161      C1166   1.403       .  A
C1161      F1168   1.358       .  S
C1162      C1163   1.411       .  A
C1163      C1164   1.398       .  A
C1163      F1170   1.358       .  S
C1164      C1165   1.404       .  A
C1164      F1169   1.358       .  S
C1165      C1166   1.401       .  A
C1166      F1167   1.358       .  S
C1171      C1172   1.416       .  A
C1171      C1176   1.407       .  A
C1171      F1178   1.358       .  S
C1172      C1173   1.408       .  A
C1173      C1174   1.403       .  A
C1173      F1180   1.358       .  S
C1174      C1175   1.409       .  A
C1174      F1179   1.358       .  S
C1175      C1176   1.404       .  A
C1176      F1177   1.358       .  S
