geometry optimzed in LAMMPS
_audit_creation_date              2020-11-30 
_audit_creation_method            'lammps2cif' 
_symmetry_space_group_name_H-M    'P1' 
_symmetry_Int_Tables_number       1 
_symmetry_cell_setting            triclinic 
loop_ 
_symmetry_equiv_pos_as_xyz 
  x,y,z 
_cell_length_a                    36.52876464055079 
_cell_length_b                    36.47551853951503 
_cell_length_c                    36.48836272695276 
_cell_angle_alpha                 90.27283195168029 
_cell_angle_beta                  90.23622195201774 
_cell_angle_gamma                 90.08243019806167 
loop_ 
_atom_site_label 
_atom_site_type_symbol 
_atom_site_fract_x 
_atom_site_fract_y 
_atom_site_fract_z 
_atom_site_charge 
C1          C  0.22861772  0.86162701  0.96777220     0.04140
C2          C  0.23002398  0.84165097  0.00039125    -0.12010
C3          C  0.23364323  0.85937523  0.03427978     0.01640
C4          C  0.23838349  0.89768586  0.03532534    -0.10540
C5          C  0.23763172  0.91811976  0.00276377     0.04130
C6          C  0.23240038  0.89994974  0.96911424    -0.09960
H7          H  0.22633266  0.81216311  0.99952051     0.09730
H8          H  0.24067499  0.91173162  0.06147425     0.07250
H9          H  0.23024398  0.91576868  0.94413026     0.07100
C10         C  0.63847136  0.13504357  0.02851465     0.04140
C11         C  0.64031199  0.15278955  0.99463881    -0.12010
C12         C  0.63703264  0.13308147  0.96192641     0.01640
C13         C  0.63255549  0.09485924  0.96281356    -0.10540
C14         C  0.63138440  0.07624704  0.99653371     0.04130
C15         C  0.63373311  0.09667223  0.02934779    -0.09960
H16         H  0.64521130  0.18209766  0.99364110     0.09730
H17         H  0.63108112  0.07952725  0.93733574     0.07250
H18         H  0.63318656  0.08260544  0.05543021     0.07100
C19         C  0.96810299  0.69437506  0.13288457     0.04140
C20         C  0.96594462  0.69110751  0.09453312    -0.12010
C21         C  0.93310415  0.69848215  0.07618305     0.01640
C22         C  0.90186732  0.70741371  0.09641019    -0.10540
C23         C  0.90221272  0.70588101  0.13497781     0.04130
C24         C  0.93570356  0.69928729  0.15290106    -0.09960
H25         H  0.99041142  0.68551181  0.07875104     0.09730
H26         H  0.87702019  0.71481527  0.08189958     0.07250
H27         H  0.93689459  0.69917704  0.18247375     0.07100
C28         C  0.89636986  0.28126720  0.86432676     0.04140
C29         C  0.92942908  0.27959160  0.84505003    -0.12010
C30         C  0.96309716  0.28270084  0.86349138     0.01640
C31         C  0.96332417  0.28777595  0.90180039    -0.10540
C32         C  0.93038978  0.28835142  0.92153572     0.04130
C33         C  0.89704801  0.28540385  0.90256192    -0.09960
H34         H  0.92891395  0.27529707  0.81563656     0.09730
H35         H  0.98912513  0.29008299  0.91640011     0.07250
H36         H  0.87157242  0.28559781  0.91769390     0.07100
C37         C  0.64101410  0.85841224  0.96564241     0.04140
C38         C  0.63498323  0.89639630  0.96566904    -0.12010
C39         C  0.63165313  0.91585832  0.99884816     0.01640
C40         C  0.63240940  0.89634310  0.03206794    -0.10540
C41         C  0.63908127  0.85819688  0.03234987     0.04130
C42         C  0.64380789  0.83982840  0.99891265    -0.09960
H43         H  0.63396019  0.91098644  0.93987485     0.09730
H44         H  0.62926839  0.91109749  0.05768905     0.07250
H45         H  0.64988107  0.81075104  0.99865759     0.07100
C46         C  0.22303172  0.13336091  0.97025332     0.04140
C47         C  0.23544944  0.09670232  0.97185381    -0.12010
C48         C  0.23593864  0.07754368  0.00519156     0.01640
C49         C  0.22889495  0.09641673  0.03794081    -0.10540
C50         C  0.21886182  0.13348140  0.03709292     0.04130
C51         C  0.21400050  0.15095979  0.00333892    -0.09960
H52         H  0.24286826  0.08219395  0.94703743     0.09730
H53         H  0.23005140  0.08203006  0.06383893     0.07250
H54         H  0.20281162  0.17842843  0.00317274     0.07100
C55         C  0.96186358  0.70818981  0.85923176     0.04140
C56         C  0.96252408  0.70360517  0.89747945    -0.12010
C57         C  0.92974966  0.70267236  0.91737895     0.01640
C58         C  0.89617439  0.70553419  0.89890254    -0.10540
C59         C  0.89514449  0.70891354  0.86059611     0.04130
C60         C  0.92805083  0.71029950  0.84109195    -0.09960
H61         H  0.98847317  0.70189311  0.91187433     0.09730
H62         H  0.87091669  0.70555039  0.91438410     0.07250
H63         H  0.92730711  0.71381989  0.81162235     0.07100
C64         C  0.89395594  0.29201610  0.13790094     0.04140
C65         C  0.89481239  0.29342531  0.09954430    -0.12010
C66         C  0.92842064  0.29274573  0.08101593     0.01640
C67         C  0.96112903  0.29014831  0.10130023    -0.10540
C68         C  0.96045581  0.28918983  0.13991608     0.04130
C69         C  0.92667183  0.29098738  0.15788051    -0.09960
H70         H  0.86939077  0.29390026  0.08412707     0.09730
H71         H  0.98698147  0.28808532  0.08698763     0.07250
H72         H  0.92568147  0.29030569  0.18756009     0.07100
C73         C  0.79527596  0.03150113  0.28292886     0.04140
C74         C  0.77554079  0.99861734  0.28260029    -0.12010
C75         C  0.79307273  0.96495498  0.28788585     0.01640
C76         C  0.83108386  0.96460137  0.29451640    -0.10540
C77         C  0.85146266  0.99720269  0.29308879     0.04130
C78         C  0.83341529  0.03062706  0.28748964    -0.09960
H79         H  0.74634176  0.99928677  0.27734957     0.09730
H80         H  0.84514318  0.93881032  0.29870830     0.07250
H81         H  0.84910626  0.05582531  0.28613042     0.07100
C82         C  0.06496753  0.02578113  0.69949154     0.04140
C83         C  0.08444055  0.99284759  0.70044730    -0.12010
C84         C  0.06594398  0.95917501  0.70140870     0.01640
C85         C  0.02744621  0.95874365  0.69939769    -0.10540
C86         C  0.00771922  0.99167266  0.69682322     0.04130
C87         C  0.02661188  0.02520136  0.69733594    -0.09960
H88         H  0.11406840  0.99352635  0.70227010     0.09730
H89         H  0.01280467  0.93292672  0.70073746     0.07250
H90         H  0.01148607  0.05074298  0.69725291     0.07100
C91         C  0.79370668  0.95719870  0.71836525     0.04140
C92         C  0.83111946  0.95683668  0.71013741    -0.12010
C93         C  0.84871312  0.98909515  0.69940424     0.01640
C94         C  0.82809251  0.02118377  0.69478122    -0.10540
C95         C  0.79135563  0.02309922  0.70692728     0.04130
C96         C  0.77501374  0.99062737  0.71963616    -0.09960
H97         H  0.84643221  0.93146503  0.71186355     0.09730
H98         H  0.84151845  0.04486556  0.68322238     0.07250
H99         H  0.74731593  0.99077425  0.72990928     0.07100
C100        C  0.06856770  0.02669027  0.28970458     0.04140
C101        C  0.03000004  0.02677815  0.28997007    -0.12010
C102        C  0.01024463  0.99385994  0.29283162     0.01640
C103        C  0.02900281  0.96037734  0.29321437    -0.10540
C104        C  0.06730238  0.95989248  0.29165852     0.04130
C105        C  0.08687243  0.99297268  0.29150703    -0.09960
H106        H  0.01523673  0.05243370  0.28785621     0.09730
H107        H  0.01381914  0.93482643  0.29342530     0.07250
H108        H  0.11652598  0.99223440  0.29167137     0.07100
C109        C  0.46171625  0.35638160  0.20503739     0.04140
C110        C  0.42821917  0.33785422  0.20761687    -0.12010
C111        C  0.39495494  0.35648446  0.20329305     0.01640
C112        C  0.39557143  0.39442939  0.19638822    -0.10540
C113        C  0.42882533  0.41371653  0.19595354     0.04130
C114        C  0.46191979  0.39448625  0.19954204    -0.09960
H115        H  0.42812533  0.30890220  0.21420516     0.09730
H116        H  0.37011318  0.40938495  0.19357448     0.07250
H117        H  0.48765043  0.40930688  0.19931832     0.07100
Fe118      Fe  0.64264996  0.20724702  0.24374169     1.65780
Fe119      Fe  0.67657265  0.28704341  0.21023699     1.73250
Fe120      Fe  0.71540691  0.24818799  0.28522809     1.54410
O121        O  0.67857072  0.23113968  0.32543432    -0.80670
O122        O  0.73005041  0.27946896  0.19610233    -0.78970
O123        O  0.62673694  0.21487601  0.29695773    -0.83170
O124        O  0.67977257  0.16704770  0.25948207    -0.78030
O125        O  0.70372906  0.30072774  0.30014184    -0.79800
O126        O  0.66173892  0.25208415  0.16685310    -0.82550
C127        C  0.71340782  0.16675499  0.26843040     0.98220
C128        C  0.64505107  0.22136086  0.32585222     1.05660
O129        O  0.67832408  0.24747734  0.24648232    -1.11530
O130        O  0.62318193  0.29766545  0.22267527    -0.73960
O131        O  0.59970181  0.24146868  0.22805619    -0.77450
O132        O  0.73140466  0.19577011  0.27448818    -0.78140
C133        C  0.59617781  0.27602643  0.22515704     0.97120
O134        O  0.65622530  0.19615180  0.19042747    -0.76090
O135        O  0.69194879  0.32822555  0.24716790    -0.81290
C136        C  0.75810962  0.27429026  0.21593053     0.99750
C137        C  0.70009353  0.32929518  0.28105323     1.05660
O138        O  0.75657197  0.26542789  0.24963596    -0.76930
C139        C  0.65883648  0.21745059  0.16325840     1.03960
C140        C  0.39478010  0.35528282  0.78694345     0.04140
C141        C  0.42831783  0.33712713  0.78520071    -0.12010
C142        C  0.46126601  0.35666890  0.78613652     0.01640
C143        C  0.46049879  0.39511426  0.79033863    -0.10540
C144        C  0.42683453  0.41392019  0.79286537     0.04130
C145        C  0.39398511  0.39362314  0.79097532    -0.09960
H146        H  0.42874357  0.30754945  0.78201189     0.09730
H147        H  0.48594713  0.41041246  0.79072451     0.07250
H148        H  0.36788294  0.40763699  0.79226344     0.07100
C149        C  0.57063126  0.20185714  0.52962520     0.04140
C150        C  0.58790021  0.20403995  0.49564456    -0.12010
C151        C  0.56740375  0.20323188  0.46317063     0.01640
C152        C  0.52905563  0.19954238  0.46484009    -0.10540
C153        C  0.51115918  0.19672815  0.49891936     0.04130
C154        C  0.53242048  0.19763148  0.53124536    -0.09960
H155        H  0.61735381  0.20757719  0.49449413     0.09730
H156        H  0.51314152  0.19983581  0.43971461     0.07250
H157        H  0.51920284  0.19594228  0.55771542     0.07100
Fe158      Fe  0.71960394  0.24182591  0.71301073     1.65780
Fe159      Fe  0.67664625  0.28285087  0.78373110     1.73250
Fe160      Fe  0.64109328  0.20605779  0.74482938     1.54410
O161        O  0.62866100  0.21966397  0.69228895    -0.80670
O162        O  0.65799119  0.24651489  0.82423993    -0.78970
O163        O  0.68512913  0.22474616  0.66935346    -0.83170
O164        O  0.73100529  0.18989827  0.72809333    -0.78030
O165        O  0.59907846  0.24139355  0.76235458    -0.79800
O166        O  0.72843390  0.27295421  0.80262896    -0.82550
C167        C  0.71140242  0.16190804  0.72350734     0.98220
C168        C  0.65044284  0.22123934  0.66546956     1.05660
O169        O  0.67900887  0.24398222  0.74709259    -1.11530
O170        O  0.69487278  0.32336752  0.74694257    -0.73960
O171        O  0.71203651  0.29431315  0.69609678    -0.77450
O172        O  0.67664091  0.16424473  0.72577900    -0.78140
C173        C  0.70502892  0.32355439  0.71341851     0.97120
O174        O  0.75888033  0.25794698  0.75209190    -0.76090
O175        O  0.62468088  0.29640299  0.76885746    -0.81290
C176        C  0.65351270  0.21178048  0.82583701     0.99750
C177        C  0.59681474  0.27594266  0.76725360     1.05660
O178        O  0.65189957  0.19124220  0.79771473    -0.76930
C179        C  0.75802201  0.26639898  0.78604225     1.03960
C180        C  0.72885476  0.46380237  0.36175087     0.04140
C181        C  0.73616236  0.46275648  0.39953093    -0.12010
C182        C  0.74525514  0.49490313  0.41866102     0.01640
C183        C  0.74790580  0.52817201  0.39956019    -0.10540
C184        C  0.73799148  0.53020414  0.36218795     0.04130
C185        C  0.72887447  0.49759153  0.34367080    -0.09960
H186        H  0.73367492  0.43712681  0.41423731     0.09730
H187        H  0.75543954  0.55276710  0.41452465     0.07250
H188        H  0.72106238  0.49843074  0.31503180     0.07100
C189        C  0.39913215  0.63160224  0.21000812     0.04140
C190        C  0.39785148  0.59347589  0.20403983    -0.12010
C191        C  0.43026613  0.57281455  0.20387751     0.01640
C192        C  0.46402158  0.59049662  0.20936429    -0.10540
C193        C  0.46569861  0.62876385  0.21390690     0.04130
C194        C  0.43313168  0.64892052  0.21401442    -0.09960
H195        H  0.37168627  0.57974997  0.20089422     0.09730
H196        H  0.48890859  0.57439171  0.21038405     0.07250
H197        H  0.43419862  0.67834499  0.21814105     0.07100
Fe198      Fe  0.72252436  0.74858471  0.28588593     1.65780
Fe199      Fe  0.64351351  0.78186726  0.24984197     1.73250
Fe200      Fe  0.68373300  0.70756170  0.21207822     1.54410
O201        O  0.73524108  0.72158131  0.19645595    -0.80670
O202        O  0.60329078  0.74365713  0.23425998    -0.78970
O203        O  0.76353942  0.73228933  0.24909091    -0.83170
O204        O  0.71505349  0.69605280  0.30158606    -0.78030
O205        O  0.66482470  0.74259100  0.17015436    -0.79800
O206        O  0.63153359  0.76997112  0.30283228    -0.82550
C207        C  0.71129429  0.66696237  0.28306539     0.98220
C208        C  0.76435888  0.72529793  0.21484449     1.05660
O209        O  0.68315053  0.74589245  0.24935893    -1.11530
O210        O  0.67822028  0.82538225  0.26501111    -0.73960
O211        O  0.73364645  0.80132550  0.27287474    -0.77450
O212        O  0.70309092  0.66739052  0.24894674    -0.78140
C213        C  0.71278743  0.82862767  0.26903368     0.97120
O214        O  0.68692073  0.76436007  0.32820526    -0.76090
O215        O  0.65252959  0.79620909  0.19684571    -0.81290
C216        C  0.60294698  0.70918658  0.22827602     0.99750
C217        C  0.65761275  0.77682827  0.16851309     1.05660
O218        O  0.63203195  0.69080635  0.22462084    -0.76930
C219        C  0.65222458  0.76744642  0.33054023     1.03960
C220        C  0.56717722  0.77922787  0.53006785     0.04140
C221        C  0.52872607  0.77975305  0.52936986    -0.12010
C222        C  0.50974616  0.78208462  0.49592908     0.01640
C223        C  0.52946937  0.78309425  0.46297665    -0.10540
C224        C  0.56794228  0.78182066  0.46349502     0.04130
C225        C  0.58645159  0.78076332  0.49707952    -0.09960
H226        H  0.51355772  0.77809978  0.55477558     0.09730
H227        H  0.51493554  0.78391030  0.43703865     0.07250
H228        H  0.61612097  0.77995441  0.49748677     0.07100
C229        C  0.72520571  0.46128454  0.63383001     0.04140
C230        C  0.71595871  0.49416822  0.65165540    -0.12010
C231        C  0.72012787  0.52788590  0.63424626     0.01640
C232        C  0.72992398  0.52894254  0.59714423    -0.10540
C233        C  0.73726335  0.49624550  0.57798850     0.04130
C234        C  0.73696574  0.46283456  0.59704996    -0.09960
H235        H  0.70563294  0.49379455  0.67944191     0.09730
H236        H  0.73103375  0.55499130  0.58302633     0.07250
H237        H  0.74432196  0.43794146  0.58260118     0.07100
C238        C  0.39400837  0.63278348  0.79807021     0.04140
C239        C  0.42753713  0.65112272  0.79637594    -0.12010
C240        C  0.46035860  0.63155090  0.79656745     0.01640
C241        C  0.45975642  0.59312036  0.79886557    -0.10540
C242        C  0.42620174  0.57421171  0.80102806     0.04130
C243        C  0.39332051  0.59439547  0.80101531    -0.09960
H244        H  0.42804552  0.68069468  0.79341443     0.09730
H245        H  0.48521282  0.57795125  0.79768646     0.07250
H246        H  0.36726468  0.58018100  0.80174928     0.07100
Fe247      Fe  0.71425408  0.74230231  0.71222655     1.65780
Fe248      Fe  0.67548615  0.70480782  0.78762440     1.73250
Fe249      Fe  0.63855147  0.78111210  0.74935743     1.54410
O250        O  0.67558242  0.82218325  0.73452734    -0.80670
O251        O  0.62201403  0.69156604  0.77724134    -0.78970
O252        O  0.72905949  0.79464138  0.72426796    -0.83170
O253        O  0.67914877  0.75971283  0.67050950    -0.78030
O254        O  0.64865397  0.79508685  0.80233783    -0.79800
O255        O  0.69116263  0.66310178  0.75104511    -0.82550
C256        C  0.64509166  0.76670885  0.66826248     0.98220
C257        C  0.70993920  0.82310632  0.72882190     1.05660
O258        O  0.67597627  0.74265087  0.74973177    -1.11530
O259        O  0.72848808  0.71491602  0.80196887    -0.73960
O260        O  0.75526015  0.72529046  0.74834047    -0.77450
O261        O  0.62503326  0.77043133  0.69617739    -0.78140
C262        C  0.75676155  0.71894588  0.78257429     0.97120
O263        O  0.70259868  0.68970150  0.69727500    -0.76090
O264        O  0.66038745  0.74151407  0.82915986    -0.81290
C265        C  0.59426364  0.71179353  0.77264879     0.99750
C266        C  0.65339625  0.77570980  0.83054337     1.05660
O267        O  0.59642353  0.74568846  0.76483709    -0.76930
C268        C  0.69809963  0.66156888  0.71683360     1.03960
C269        C  0.29443030  0.77995610  0.53327089     0.04140
C270        C  0.33274059  0.78093709  0.53195087    -0.12010
C271        C  0.35072429  0.78221069  0.49808858     0.01640
C272        C  0.33006993  0.78195719  0.46550201    -0.10540
C273        C  0.29151564  0.78139165  0.46659187     0.04130
C274        C  0.27402673  0.78109446  0.50073144    -0.09960
H275        H  0.34851922  0.78008218  0.55715742     0.09730
H276        H  0.34403751  0.78171295  0.43936064     0.07250
H277        H  0.24438709  0.78100620  0.50206560     0.07100
C278        C  0.14361911  0.52704701  0.64264984     0.04140
C279        C  0.14455276  0.49258187  0.65902791    -0.12010
C280        C  0.14415719  0.46060617  0.63773374     0.01640
C281        C  0.14085953  0.46335683  0.59937644    -0.10540
C282        C  0.13860895  0.49791229  0.58246166     0.04130
C283        C  0.14047994  0.52976355  0.60433344    -0.09960
H284        H  0.14700304  0.49067340  0.68858922     0.09730
H285        H  0.14081219  0.43872995  0.58264690     0.07250
H286        H  0.13987588  0.55653157  0.59158657     0.07100
Fe287      Fe  0.21753927  0.78365708  0.74990690     1.65780
Fe288      Fe  0.14450353  0.74069710  0.71086777     1.73250
Fe289      Fe  0.17835542  0.71052419  0.79193798     1.54420
O290        O  0.23171948  0.69554703  0.78463627    -0.80670
O291        O  0.10160342  0.72666924  0.74573740    -0.78970
O292        O  0.25873136  0.74802309  0.76791046    -0.83170
O293        O  0.20649697  0.80048528  0.80213288    -0.78030
O294        O  0.16273241  0.66591064  0.75930510    -0.79800
O295        O  0.12877129  0.79420812  0.71648068    -0.82550
C296        C  0.20262686  0.78253583  0.83138407     0.98220
C297        C  0.25999589  0.71465299  0.77823692     1.05660
O298        O  0.18031733  0.74502896  0.75082056    -1.11530
O299        O  0.18144353  0.75460070  0.66983686    -0.73960
O300        O  0.23305508  0.77189030  0.69755519    -0.77450
O301        O  0.19436551  0.74872150  0.83138222    -0.78140
C302        C  0.21477814  0.76453685  0.66898345     0.97120
O303        O  0.18050264  0.82332904  0.73161958    -0.76090
O304        O  0.15796234  0.68693056  0.70225026    -0.81290
C305        C  0.09791372  0.72533314  0.78036551     0.99750
C306        C  0.16007116  0.66083791  0.72491124     1.05660
O307        O  0.12497174  0.72390224  0.80217543    -0.76930
C308        C  0.14694634  0.82340537  0.72176289     1.03960
C309        C  0.29250737  0.20206570  0.53326615     0.04140
C310        C  0.33052921  0.19633340  0.53415289    -0.12010
C311        C  0.35077045  0.19465492  0.50140380     0.01640
C312        C  0.33199054  0.19683289  0.46771705    -0.10540
C313        C  0.29383219  0.20215829  0.46664861     0.04130
C314        C  0.27454279  0.20506820  0.49956315    -0.09960
H315        H  0.34449382  0.19443028  0.56033656     0.09730
H316        H  0.34721680  0.19550449  0.44233173     0.07250
H317        H  0.24530297  0.21013410  0.49900882     0.07100
Fe318      Fe  0.14034469  0.24182611  0.71111236     1.65780
Fe319      Fe  0.18073319  0.27958882  0.78612777     1.73250
Fe320      Fe  0.21595785  0.20239628  0.74806753     1.54420
O321        O  0.17856103  0.16186719  0.73109889    -0.80670
O322        O  0.23390170  0.29201655  0.77460812    -0.78970
O323        O  0.12478807  0.18937004  0.72206970    -0.83170
O324        O  0.17570008  0.22450889  0.66920606    -0.78030
O325        O  0.20545992  0.18861577  0.80086602    -0.79800
O326        O  0.16539969  0.32135966  0.74967461    -0.82550
C327        C  0.20983342  0.21737677  0.66740560     0.98220
C328        C  0.14422569  0.16089903  0.72471470     1.05660
O329        O  0.17892309  0.24122148  0.74851170    -1.11530
O330        O  0.12784511  0.27078975  0.80116417    -0.73960
O331        O  0.09972260  0.25948334  0.74797455    -0.77450
O332        O  0.22979731  0.21321171  0.69541275    -0.78140
C333        C  0.09907987  0.26642089  0.78229341     0.97120
O334        O  0.15265931  0.29395165  0.69649789    -0.76090
O335        O  0.19589963  0.24258617  0.82739644    -0.81290
C336        C  0.26140177  0.27146636  0.77050778     0.99750
C337        C  0.20171956  0.20812357  0.82932379     1.05660
O338        O  0.25877682  0.23714671  0.76454524    -0.76930
C339        C  0.15794948  0.32248398  0.71549124     1.03960
C340        C  0.13905470  0.53084765  0.36386038     0.04140
C341        C  0.13673370  0.53220038  0.40231503    -0.12010
C342        C  0.13257516  0.49992937  0.42277690     0.01640
C343        C  0.13102526  0.46607312  0.40438679    -0.10540
C344        C  0.13437113  0.46430276  0.36605873     0.04130
C345        C  0.13730232  0.49680005  0.34605813    -0.09960
H346        H  0.13891350  0.55831889  0.41643981     0.09730
H347        H  0.12887935  0.44098416  0.42003508     0.07250
H348        H  0.13955315  0.49547098  0.31647533     0.07100
Fe349      Fe  0.22027672  0.78469330  0.24735811     1.65780
Fe350      Fe  0.18690424  0.70609405  0.21095217     1.73250
Fe351      Fe  0.14455081  0.74585232  0.28291024     1.54410
O352        O  0.17878330  0.76540471  0.32501667    -0.80670
O353        O  0.13491622  0.71444519  0.19288966    -0.78970
O354        O  0.23391968  0.77422900  0.30046495    -0.83170
O355        O  0.18341302  0.82519333  0.26416507    -0.78030
O356        O  0.15727819  0.69442945  0.29970154    -0.79800
O357        O  0.20500218  0.74143382  0.16924890    -0.82550
C358        C  0.14902877  0.82635994  0.26951296     0.98220
C359        C  0.21307316  0.77163583  0.32797691     1.05660
O360        O  0.18364352  0.74568918  0.24693551    -1.11530
O361        O  0.23896824  0.69432015  0.22702008    -0.73960
O362        O  0.26321738  0.75013461  0.23148974    -0.77450
O363        O  0.12914583  0.79791929  0.26988253    -0.78140
C364        C  0.26635455  0.71542539  0.22939947     0.97120
O365        O  0.20831825  0.79730781  0.19424909    -0.76090
O366        O  0.16852606  0.66560839  0.24724329    -0.81290
C367        C  0.10562906  0.71746938  0.21101986     0.99750
C368        C  0.16072123  0.66529521  0.28126098     1.05660
O369        O  0.10537554  0.72566871  0.24514478    -0.76930
C370        C  0.20762329  0.77624903  0.16654796     1.03960
Fe371      Fe  0.21444687  0.20915007  0.25036320     1.65780
Fe372      Fe  0.14050585  0.24648107  0.29052045     1.73250
Fe373      Fe  0.17722666  0.28580524  0.21574667     1.54410
O374        O  0.22972289  0.29997770  0.22804727    -0.80670
O375        O  0.09879693  0.26544429  0.25524057    -0.78970
O376        O  0.25525102  0.24481222  0.23156683    -0.83170
O377        O  0.19896683  0.19527822  0.19837372    -0.78030
O378        O  0.15958592  0.32620939  0.25299921    -0.79800
O379        O  0.12506311  0.19448086  0.27704913    -0.82550
C380        C  0.19673621  0.21591873  0.17069148     0.98220
C381        C  0.25767579  0.27956664  0.22868803     1.05660
O382        O  0.17744503  0.24730003  0.25238564    -1.11530
O383        O  0.17799641  0.22766550  0.33041134    -0.73960
O384        O  0.23160285  0.22077785  0.30207709    -0.77450
O385        O  0.19421144  0.25069354  0.17340235    -0.78140
C386        C  0.21270236  0.22289343  0.33095077     0.97120
O387        O  0.17934070  0.16823063  0.26969506    -0.76090
O388        O  0.15293480  0.29843083  0.30683049    -0.81290
C389        C  0.09695924  0.27161746  0.22081233     0.99750
C390        C  0.15478502  0.32709896  0.28762562     1.05660
O391        O  0.12508008  0.27376437  0.20094188    -0.76930
C392        C  0.14498782  0.16626488  0.27526772     1.03960
C393        C  0.14435365  0.56497536  0.34205392    -0.04330
C394        C  0.17337412  0.56774623  0.31650743    -0.01450
C395        C  0.17734248  0.59946875  0.29486400     0.03540
C396        C  0.15438430  0.63005704  0.30076792    -0.04330
C397        C  0.12577517  0.62748137  0.32690661    -0.01430
C398        C  0.12001733  0.59470815  0.34629881     0.03540
C399        C  0.20017651  0.53855940  0.31332341     0.38190
C400        C  0.10146885  0.65827423  0.33366908     0.38180
C401        C  0.08822972  0.59134769  0.36985622     0.36600
C402        C  0.20563064  0.60061748  0.26709373     0.36610
N403        N  0.06284991  0.58869388  0.38854777    -0.38210
N404        N  0.22794065  0.60112121  0.24466885    -0.38220
N405        N  0.08217839  0.68280162  0.33927461    -0.37660
N406        N  0.22154383  0.51529582  0.31078272    -0.37660
C407        C  0.13857670  0.42851675  0.34672518    -0.04330
C408        C  0.16734967  0.40459876  0.35661360    -0.01450
C409        C  0.17221283  0.37128950  0.33763037     0.03540
C410        C  0.15013281  0.36268137  0.30685910    -0.04330
C411        C  0.12134236  0.38651671  0.29695251    -0.01430
C412        C  0.11528180  0.41905695  0.31708647     0.03540
C413        C  0.19286436  0.41466693  0.38561127     0.38190
C414        C  0.09617861  0.37641341  0.26777827     0.38180
C415        C  0.08434149  0.44225605  0.30792643     0.36600
C416        C  0.19970150  0.34568309  0.35041001     0.36610
N417        N  0.05967666  0.46073848  0.30058458    -0.38210
N418        N  0.22137189  0.32536959  0.36134780    -0.38220
N419        N  0.07548137  0.36863282  0.24495700    -0.37660
N420        N  0.21319762  0.42272262  0.40870004    -0.37660
C421        C  0.27097489  0.20597170  0.56755537    -0.04330
C422        C  0.26722550  0.17595138  0.59148624    -0.01450
C423        C  0.24606664  0.17942399  0.62350106     0.03540
C424        C  0.22790291  0.21273468  0.63148565    -0.04330
C425        C  0.23089004  0.24249777  0.60716823    -0.01430
C426        C  0.25265563  0.23925619  0.57546046     0.03540
C427        C  0.28460109  0.14123171  0.58284366     0.38190
C428        C  0.21291237  0.27696266  0.61556389     0.38180
C429        C  0.25717266  0.27060182  0.55154692     0.36600
C430        C  0.24275463  0.14850298  0.64820246     0.36610
N431        N  0.26084785  0.29553961  0.53241202    -0.38210
N432        N  0.24006361  0.12389186  0.66791941    -0.38220
N433        N  0.19864019  0.30450511  0.62218103    -0.37660
N434        N  0.29844287  0.11354285  0.57593059    -0.37660
C435        C  0.27369246  0.20674690  0.43130364    -0.04330
C436        C  0.24263623  0.18478046  0.42324714    -0.01450
C437        C  0.22171079  0.19118036  0.39131638     0.03540
C438        C  0.23251009  0.21849767  0.36628515    -0.04330
C439        C  0.26471134  0.23905508  0.37336949    -0.01430
C440        C  0.28431630  0.23423041  0.40632306     0.03540
C441        C  0.23281608  0.15467552  0.44719151     0.38190
C442        C  0.27826330  0.26496143  0.34657716     0.38180
C443        C  0.31478588  0.25845896  0.41487770     0.36600
C444        C  0.19046098  0.16791129  0.38314466     0.36610
N445        N  0.33905168  0.27778981  0.42170399    -0.38210
N446        N  0.16574865  0.14902055  0.37679182    -0.38220
N447        N  0.28962104  0.28532702  0.32522540    -0.37660
N448        N  0.22499190  0.13067855  0.46627755    -0.37660
C449        C  0.13601528  0.50051317  0.54162478    -0.04330
C450        C  0.16575847  0.51421288  0.52112548    -0.01450
C451        C  0.16433323  0.51450644  0.48246874     0.03540
C452        C  0.13306892  0.50120634  0.46370932    -0.04330
C453        C  0.10290182  0.48832742  0.48412524    -0.01430
C454        C  0.10425867  0.48827139  0.52287970     0.03540
C455        C  0.19850595  0.52726151  0.53949798     0.38190
C456        C  0.07021107  0.47558092  0.46523608     0.38180
C457        C  0.07238251  0.47682630  0.54342322     0.36600
C458        C  0.19578393  0.52734592  0.46194826     0.36610
N459        N  0.04655532  0.46810280  0.55944561    -0.38210
N460        N  0.22076712  0.53768582  0.44553654    -0.38220
N461        N  0.04420709  0.46531330  0.45011602    -0.37660
N462        N  0.22509759  0.53795792  0.55313307    -0.37660
C463        C  0.14884738  0.56002448  0.66608522    -0.04330
C464        C  0.18237726  0.57928708  0.66513842    -0.01450
C465        C  0.18702815  0.61134944  0.68625858     0.03540
C466        C  0.15897837  0.62320220  0.70983164    -0.04330
C467        C  0.12814061  0.60066902  0.71528036    -0.01430
C468        C  0.12221806  0.56999376  0.69231117     0.03540
C469        C  0.21302360  0.56479463  0.64461501     0.38190
C470        C  0.10379097  0.60778429  0.74570293     0.38180
C471        C  0.08872063  0.54887600  0.69555243     0.36600
C472        C  0.22150819  0.63104878  0.68543462     0.36610
N473        N  0.06198193  0.53204202  0.69812442    -0.38210
N474        N  0.24918382  0.64647611  0.68484735    -0.38220
N475        N  0.08510898  0.61238251  0.77083708    -0.37660
N476        N  0.23818443  0.55310509  0.62941167    -0.37660
C477        C  0.14847186  0.42453755  0.65633454    -0.04330
C478        C  0.17903274  0.41815537  0.67951170    -0.01450
C479        C  0.18146713  0.38558072  0.70010170     0.03540
C480        C  0.15438504  0.35817353  0.69625753    -0.04330
C481        C  0.12466953  0.36391082  0.67177361    -0.01430
C482        C  0.12123389  0.39728191  0.65279407     0.03540
C483        C  0.20858619  0.44476865  0.68152000     0.38190
C484        C  0.09708865  0.33566314  0.66617788     0.38180
C485        C  0.08879289  0.40385654  0.63073616     0.36600
C486        C  0.21258435  0.37990892  0.72424412     0.36610
N487        N  0.06261019  0.40855055  0.61345678    -0.38210
N488        N  0.23738393  0.37572323  0.74360627    -0.38220
N489        N  0.07523979  0.31311063  0.66137226    -0.37660
N490        N  0.23208275  0.46604778  0.68305941    -0.37660
C491        C  0.23000128  0.77615446  0.36480867    -0.04330
C492        C  0.22365716  0.75008955  0.39248881    -0.01450
C493        C  0.24342546  0.75191165  0.42574966     0.03540
C494        C  0.26936385  0.78027800  0.43201619    -0.04330
C495        C  0.27406762  0.80756167  0.40501742    -0.01430
C496        C  0.25472028  0.80536375  0.37153514     0.03540
C497        C  0.19791876  0.72028566  0.38631187     0.38190
C498        C  0.29820381  0.83850658  0.41184873     0.38180
C499        C  0.25981680  0.83371573  0.34419790     0.36600
C500        C  0.23754770  0.72354142  0.45276565     0.36610
N501        N  0.26390196  0.85627333  0.32238385    -0.38210
N502        N  0.23181314  0.70057965  0.47372289    -0.38220
N503        N  0.31737686  0.86329164  0.41702600    -0.37660
N504        N  0.17738509  0.69648841  0.38176548    -0.37660
C505        C  0.27507742  0.77593207  0.56862796    -0.04330
C506        C  0.25879959  0.74204443  0.57759151    -0.01450
C507        C  0.23651692  0.73905316  0.60883605     0.03540
C508        C  0.23351921  0.76887074  0.63335927    -0.04330
C509        C  0.25080197  0.80257069  0.62496018    -0.01430
C510        C  0.27095776  0.80625367  0.59231220     0.03540
C511        C  0.26693536  0.70963371  0.55598010     0.38190
C512        C  0.24668435  0.83392256  0.64925717     0.38180
C513        C  0.28737297  0.84121668  0.58299567     0.36600
C514        C  0.21648334  0.70540825  0.61532655     0.36610
N515        N  0.30049094  0.86908902  0.57554447    -0.38210
N516        N  0.19983397  0.67877024  0.61953889    -0.38220
N517        N  0.24332171  0.85888099  0.66865381    -0.37660
N518        N  0.27420491  0.68345308  0.53954315    -0.37660
C519        C  0.49497008  0.65186089  0.79067214    -0.04330
C520        C  0.51305175  0.66896235  0.82042216    -0.01450
C521        C  0.54505347  0.68969383  0.81433737     0.03540
C522        C  0.55805768  0.69476555  0.77832292    -0.04330
C523        C  0.53836293  0.68004248  0.74842330    -0.01430
C524        C  0.50769698  0.65744654  0.75464081     0.03540
C525        C  0.49857079  0.66538490  0.85718603     0.38190
C526        C  0.54852622  0.68965758  0.71135810     0.38180
C527        C  0.48922761  0.63981613  0.72400515     0.36600
C528        C  0.56431989  0.70637283  0.84504112     0.36610
N529        N  0.47468480  0.62534988  0.69968339    -0.38210
N530        N  0.57961519  0.71976753  0.86951801    -0.38220
N531        N  0.55567206  0.69829512  0.68176638    -0.37660
N532        N  0.48686435  0.66275146  0.88648128    -0.37660
C533        C  0.35977893  0.65412275  0.79324219    -0.04330
C534        C  0.33781206  0.66292309  0.82370827    -0.01450
C535        C  0.30579004  0.68396772  0.81892738     0.03540
C536        C  0.29587680  0.69669931  0.78372088    -0.04330
C537        C  0.31873350  0.68930551  0.75354470    -0.01430
C538        C  0.35032866  0.66762197  0.75820137     0.03540
C539        C  0.34854073  0.65085067  0.86001044     0.38190
C540        C  0.30942208  0.70342381  0.71759130     0.38180
C541        C  0.37279823  0.65854882  0.72675972     0.36600
C542        C  0.28343872  0.69339289  0.85038306     0.36610
N543        N  0.39065105  0.65121090  0.70166070    -0.38210
N544        N  0.26562810  0.70114334  0.87540301    -0.38220
N545        N  0.30219015  0.71479950  0.68890541    -0.37660
N546        N  0.35720413  0.64133531  0.88898491    -0.37660
C547        C  0.71418439  0.56199210  0.65565665    -0.04330
C548        C  0.74184916  0.57501951  0.67958297    -0.01450
C549        C  0.73574388  0.60651182  0.70129855     0.03540
C550        C  0.70234554  0.62568878  0.69840275    -0.04330
C551        C  0.67503610  0.61295326  0.67404595    -0.01430
C552        C  0.68043415  0.58053466  0.65367888     0.03540
C553        C  0.77692456  0.55648158  0.68121815     0.38190
C554        C  0.64170662  0.63374038  0.66902268     0.38180
C555        C  0.65075264  0.56581858  0.63161488     0.36600
C556        C  0.76449535  0.62015785  0.72530341     0.36610
N557        N  0.62634662  0.55433986  0.61482009    -0.38210
N558        N  0.78762130  0.63098226  0.74424650    -0.38220
N559        N  0.61521802  0.65030728  0.66411159    -0.37660
N560        N  0.80501331  0.54189041  0.68239551    -0.37660
C561        C  0.46899765  0.78204975  0.49555055    -0.04330
C562        C  0.44951734  0.81477074  0.48883787    -0.01450
C563        C  0.41084797  0.81487030  0.48962032     0.03540
C564        C  0.39144105  0.78218116  0.49682522    -0.04330
C565        C  0.41093788  0.74947085  0.50349241    -0.01430
C566        C  0.44957047  0.74940549  0.50287559     0.03540
C567        C  0.46935526  0.84851926  0.48202487     0.38190
C568        C  0.39112843  0.71583203  0.51090221     0.38180
C569        C  0.46942392  0.71565340  0.50949931     0.36600
C570        C  0.39104379  0.84885706  0.48421781     0.36610
N571        N  0.48537439  0.68879393  0.51479766    -0.38210
N572        N  0.37534734  0.87608356  0.48017343    -0.38220
N573        N  0.37518123  0.68909287  0.51685851    -0.37660
N574        N  0.48525844  0.87540847  0.47662493    -0.37660
C575        C  0.58772715  0.77633501  0.56523910    -0.04330
C576        C  0.61281039  0.74728742  0.57081029    -0.01450
C577        C  0.63319268  0.74519704  0.60362747     0.03540
C578        C  0.62747449  0.77118122  0.63183432    -0.04330
C579        C  0.60294955  0.80065017  0.62594385    -0.01430
C580        C  0.58342690  0.80336129  0.59270182     0.03540
C581        C  0.61693075  0.71878600  0.54321973     0.38190
C582        C  0.59859122  0.82901833  0.65365808     0.38180
C583        C  0.55958950  0.83456135  0.58645638     0.36600
C584        C  0.65952728  0.71583761  0.60840837     0.36610
N585        N  0.54056657  0.85940986  0.58148315    -0.38210
N586        N  0.68081318  0.69261594  0.61179690    -0.38220
N587        N  0.59511372  0.85160393  0.67575457    -0.37660
N588        N  0.62026433  0.69615309  0.52115107    -0.37660
C589        C  0.58950133  0.77836351  0.42918241    -0.04330
C590        C  0.58530006  0.74695387  0.40673671    -0.01450
C591        C  0.60706397  0.74258757  0.37525167     0.03540
C592        C  0.63416267  0.76884996  0.36671319    -0.04330
C593        C  0.63998654  0.79898385  0.39037681    -0.01430
C594        C  0.61695505  0.80438785  0.42085117     0.03540
C595        C  0.55936743  0.71850547  0.41661754     0.38190
C596        C  0.66965026  0.82443560  0.38345457     0.38180
C597        C  0.62081141  0.83730909  0.44303047     0.36600
C598        C  0.60243327  0.71030060  0.35225717     0.36610
N599        N  0.62373203  0.86363891  0.46063103    -0.38210
N600        N  0.59900053  0.68435121  0.33417552    -0.38220
N601        N  0.69376826  0.84440464  0.37859482    -0.37660
N602        N  0.53875666  0.69581695  0.42462812    -0.37660
C603        C  0.30294930  0.69795977  0.22833812    -0.04330
C604        C  0.32898227  0.70861000  0.20200528    -0.01450
C605        C  0.35920243  0.68580193  0.19447052     0.03540
C606        C  0.36520411  0.65365404  0.21529885    -0.04330
C607        C  0.34084123  0.64498893  0.24404465    -0.01430
C608        C  0.30984858  0.66701529  0.25043071     0.03540
C609        C  0.32511872  0.74324163  0.18303550     0.38190
C610        C  0.34797314  0.61393068  0.26774278     0.38180
C611        C  0.28600297  0.65908636  0.28115067     0.36600
C612        C  0.38342594  0.69490314  0.16441444     0.36610
N613        N  0.26722627  0.65311929  0.30589708    -0.38210
N614        N  0.40270734  0.70215419  0.14041841    -0.38220
N615        N  0.35353316  0.58911233  0.28659889    -0.37660
N616        N  0.32262164  0.77125061  0.16846792    -0.37660
C617        C  0.50139194  0.64831775  0.21848692    -0.04330
C618        C  0.52935988  0.64379763  0.19224731    -0.01450
C619        C  0.56279900  0.66275395  0.19621601     0.03540
C620        C  0.56750699  0.68914537  0.22456710    -0.04330
C621        C  0.53879138  0.69495565  0.24978438    -0.01430
C622        C  0.50681495  0.67324524  0.24793154     0.03540
C623        C  0.52333684  0.62075256  0.16019897     0.38190
C624        C  0.54190883  0.72303251  0.27791220     0.38180
C625        C  0.47998807  0.67585947  0.27708970     0.36600
C626        C  0.59205720  0.65526222  0.17043564     0.36610
N627        N  0.45862850  0.67781649  0.30035657    -0.38210
N628        N  0.61543154  0.64873546  0.15011282    -0.38220
N629        N  0.54371097  0.74576234  0.30008743    -0.37660
N630        N  0.51845256  0.60251756  0.13459031    -0.37660
C631        C  0.74434422  0.49509118  0.45945433    -0.04330
C632        C  0.71123727  0.50393037  0.47712604    -0.01450
C633        C  0.70940743  0.50498591  0.51564553     0.03540
C634        C  0.74048718  0.49638411  0.53716270    -0.04330
C635        C  0.77332225  0.48601289  0.51947272    -0.01430
C636        C  0.77526363  0.48550558  0.48067106     0.03540
C637        C  0.67838802  0.51026795  0.45551610     0.38190
C638        C  0.80501144  0.47583547  0.54117046     0.38180
C639        C  0.80872370  0.47445060  0.46253799     0.36600
C640        C  0.67475287  0.51331943  0.53294541     0.36610
N641        N  0.83537549  0.46542391  0.44804590    -0.38210
N642        N  0.64671166  0.51982484  0.54601320    -0.38220
N643        N  0.83023026  0.46752986  0.55853101    -0.37660
N644        N  0.65216748  0.51494764  0.43826174    -0.37660
C645        C  0.73349351  0.56627690  0.34280778    -0.04330
C646        C  0.74684286  0.57111907  0.30661982    -0.01450
C647        C  0.73785815  0.60288595  0.28634535     0.03540
C648        C  0.71771268  0.63162424  0.30279661    -0.04330
C649        C  0.70689894  0.62796801  0.33993264    -0.01430
C650        C  0.71343202  0.59521574  0.35920289     0.03540
C651        C  0.77124910  0.54414700  0.29054502     0.38190
C652        C  0.68965181  0.65815693  0.35936260     0.38180
C653        C  0.69873938  0.59192020  0.39596389     0.36600
C654        C  0.75110827  0.60662109  0.24909530     0.36610
N655        N  0.68717876  0.59061469  0.42540635    -0.38210
N656        N  0.76160587  0.60954101  0.21936238    -0.38220
N657        N  0.67707177  0.68213445  0.37588375    -0.37660
N658        N  0.79069212  0.52265901  0.27768762    -0.37660
C659        C  0.70962184  0.35898741  0.69320340    -0.04330
C660        C  0.70096671  0.36136190  0.65525362    -0.01450
C661        C  0.70374075  0.39508869  0.63668354     0.03540
C662        C  0.72102909  0.42551993  0.65369329    -0.04330
C663        C  0.73313531  0.42195493  0.69049435    -0.01430
C664        C  0.72502063  0.39007922  0.71070981     0.03540
C665        C  0.69060271  0.32910904  0.63421786     0.38190
C666        C  0.75536862  0.45035475  0.70761478     0.38180
C667        C  0.73399809  0.38948227  0.74935137     0.36600
C668        C  0.68745864  0.39835043  0.60045242     0.36610
N669        N  0.74106480  0.39047482  0.78022948    -0.38210
N670        N  0.67440350  0.40081322  0.57160900    -0.38220
N671        N  0.77312479  0.47265462  0.72171979    -0.37660
N672        N  0.68388510  0.30356905  0.61649438    -0.37660
C673        C  0.39185283  0.19378154  0.50227227    -0.04330
C674        C  0.41158003  0.22183993  0.52060887    -0.01450
C675        C  0.45025335  0.22231160  0.52013412     0.03540
C676        C  0.47005237  0.19504623  0.50082404    -0.04330
C677        C  0.45029528  0.16664582  0.48292103    -0.01430
C678        C  0.41152128  0.16597569  0.48371724     0.03540
C679        C  0.39210752  0.25130384  0.53899458     0.38190
C680        C  0.46973846  0.13735575  0.46441516     0.38180
C681        C  0.39187635  0.13616483  0.46592515     0.36600
C682        C  0.46931166  0.25175326  0.53902261     0.36610
N683        N  0.37619345  0.11244988  0.45164902    -0.38210
N684        N  0.48360002  0.27542125  0.55471487    -0.38220
N685        N  0.48480653  0.11372865  0.44957277    -0.37660
N686        N  0.37660752  0.27470113  0.55378195    -0.37660
C687        C  0.59265915  0.20716928  0.56354041    -0.04330
C688        C  0.61504587  0.17872835  0.57705755    -0.01450
C689        C  0.63635300  0.18435775  0.60899585     0.03540
C690        C  0.63392696  0.21780021  0.62851826    -0.04330
C691        C  0.61142892  0.24614197  0.61495418    -0.01430
C692        C  0.59239351  0.24144885  0.58161921     0.03540
C693        C  0.61565659  0.14352692  0.55840959     0.38190
C694        C  0.60739364  0.28003478  0.63552931     0.38180
C695        C  0.57410066  0.27248488  0.56500120     0.36600
C696        C  0.65981526  0.15529264  0.62237958     0.36610
N697        N  0.56050739  0.29767704  0.55146390    -0.38210
N698        N  0.67872034  0.13204983  0.63263447    -0.38220
N699        N  0.60400284  0.30704246  0.65194376    -0.37660
N700        N  0.61601431  0.11540962  0.54358436    -0.37660
C701        C  0.42591804  0.45502817  0.79564821    -0.04330
C702        C  0.40994511  0.47610257  0.76730426    -0.01450
C703        C  0.40964471  0.51480645  0.76940170     0.03540
C704        C  0.42544500  0.53316315  0.79979058    -0.04330
C705        C  0.44114424  0.51225592  0.82832662    -0.01430
C706        C  0.44112619  0.47344448  0.82641429     0.03540
C707        C  0.39451381  0.45821367  0.73523917     0.38190
C708        C  0.45671277  0.53072088  0.86007949     0.38180
C709        C  0.45558936  0.45255884  0.85688032     0.36600
C710        C  0.39394629  0.53585114  0.73955299     0.36610
N711        N  0.46692600  0.43633227  0.88160307    -0.38210
N712        N  0.38135019  0.55271669  0.71587149    -0.38220
N713        N  0.46917514  0.54550294  0.88535533    -0.37660
N714        N  0.38195758  0.44462680  0.70938498    -0.37660
C715        C  0.36068169  0.33343187  0.78262549    -0.04330
C716        C  0.34233800  0.33233901  0.74848220    -0.01450
C717        C  0.31045972  0.31090120  0.74405535     0.03540
C718        C  0.29777892  0.28906977  0.77316491    -0.04330
C719        C  0.31768440  0.28795428  0.80634853    -0.01430
C720        C  0.34861769  0.31067150  0.81137161     0.03540
C721        C  0.35721733  0.35177743  0.71735486     0.38190
C722        C  0.30667486  0.26308162  0.83513166     0.38180
C723        C  0.36800897  0.31075162  0.84615731     0.36600
C724        C  0.29092749  0.31079103  0.70933421     0.36610
N725        N  0.38347679  0.31088016  0.87390310    -0.38210
N726        N  0.27531137  0.31066512  0.68167256    -0.38220
N727        N  0.29866443  0.24274014  0.85797223    -0.37660
N728        N  0.36921673  0.36650468  0.69208626    -0.37660
C729        C  0.56079138  0.29379208  0.77293762    -0.04330
C730        C  0.55468931  0.31411569  0.80546644    -0.01450
C731        C  0.52229125  0.33464896  0.80984004     0.03540
C732        C  0.49622058  0.33612044  0.78122818    -0.04330
C733        C  0.50220968  0.31543954  0.74880505    -0.01430
C734        C  0.53391756  0.29363216  0.74511516     0.03540
C735        C  0.58141618  0.31304175  0.83502776     0.38190
C736        C  0.47606249  0.31719076  0.71880268     0.38180
C737        C  0.53893120  0.27130934  0.71255021     0.36600
C738        C  0.51525910  0.35295917  0.84444204     0.36610
N739        N  0.54240006  0.25313454  0.68672383    -0.38210
N740        N  0.50996139  0.36705550  0.87238254    -0.38220
N741        N  0.45516321  0.31865664  0.69493098    -0.37660
N742        N  0.60270339  0.31210908  0.85858658    -0.37660
C743        C  0.70783165  0.36484249  0.29942880    -0.04330
C744        C  0.68262847  0.39407216  0.29815086    -0.01450
C745        C  0.68856428  0.42572005  0.31980833     0.03540
C746        C  0.72110969  0.42948810  0.34077169    -0.04330
C747        C  0.74742925  0.40116493  0.34003597    -0.01430
C748        C  0.74061296  0.36884641  0.31991025     0.03540
C749        C  0.65080066  0.39193239  0.27437432     0.38190
C750        C  0.78215568  0.40562313  0.35909042     0.38180
C751        C  0.76828375  0.34027022  0.31902029     0.36600
C752        C  0.66056403  0.45386258  0.32134419     0.36610
N753        N  0.79034988  0.31754253  0.31825987    -0.38210
N754        N  0.63823594  0.47630654  0.32262339    -0.38220
N755        N  0.80984306  0.40915201  0.37424401    -0.37660
N756        N  0.62575949  0.39091708  0.25486529    -0.37660
C757        C  0.62618635  0.21661182  0.36148180    -0.04330
C758        C  0.62417803  0.24586003  0.38687422    -0.01450
C759        C  0.60426251  0.24170136  0.41968014     0.03540
C760        C  0.58661947  0.20810285  0.42759418    -0.04330
C761        C  0.58936575  0.17862044  0.40257808    -0.01430
C762        C  0.60876598  0.18294458  0.36951625     0.03540
C763        C  0.64173996  0.28060575  0.37885973     0.38190
C764        C  0.57369803  0.14325223  0.41154410     0.38180
C765        C  0.61185073  0.15223051  0.34425729     0.36600
C766        C  0.60161735  0.27220178  0.44521128     0.36610
N767        N  0.61436996  0.12778702  0.32408672    -0.38210
N768        N  0.59956541  0.29645463  0.46565987    -0.38220
N769        N  0.56168497  0.11478112  0.41854881    -0.37660
N770        N  0.65575143  0.30834794  0.37260899    -0.37660
C771        C  0.42864887  0.45450696  0.19735350    -0.04330
C772        C  0.43044886  0.47250416  0.23168989    -0.01450
C773        C  0.43086670  0.51110233  0.23364806     0.03540
C774        C  0.42883757  0.53210809  0.20134997    -0.04330
C775        C  0.42607598  0.51421531  0.16701131    -0.01430
C776        C  0.42607439  0.47545565  0.16501253     0.03540
C777        C  0.43102642  0.45128241  0.26519630     0.38190
C778        C  0.42358037  0.53573777  0.13379932     0.38180
C779        C  0.42346345  0.45707782  0.12978388     0.36600
C780        C  0.43319319  0.52933446  0.26901674     0.36610
N781        N  0.42133077  0.44234833  0.10169125    -0.38210
N782        N  0.43511353  0.54396397  0.29717138    -0.38220
N783        N  0.42154019  0.55297313  0.10732338    -0.37660
N784        N  0.43109258  0.43455034  0.29205682    -0.37660
C785        C  0.29409477  0.29746861  0.22459943    -0.04330
C786        C  0.32073231  0.28241001  0.20094869    -0.01450
C787        C  0.35216065  0.30291285  0.19187572     0.03540
C788        C  0.35975001  0.33661772  0.20983705    -0.04330
C789        C  0.33452675  0.35009484  0.23594247    -0.01430
C790        C  0.30122721  0.33159927  0.24193340     0.03540
C791        C  0.31584384  0.24606745  0.18525779     0.38190
C792        C  0.34294064  0.38254495  0.25762058     0.38180
C793        C  0.27464056  0.34783958  0.26657398     0.36600
C794        C  0.37533756  0.28994462  0.16241929     0.36610
N795        N  0.25357403  0.36135507  0.28595767    -0.38210
N796        N  0.39279489  0.27900298  0.13838451    -0.38220
N797        N  0.34928495  0.40838814  0.27504627    -0.37660
N798        N  0.31242435  0.21690059  0.17306352    -0.37660
C799        C  0.49621680  0.33546587  0.21071591    -0.04330
C800        C  0.51886403  0.34277067  0.24142841    -0.01450
C801        C  0.55035451  0.32139223  0.24769539     0.03540
C802        C  0.55928614  0.29249614  0.22354593    -0.04330
C803        C  0.53503022  0.28308936  0.19492671    -0.01430
C804        C  0.50477179  0.30570095  0.18727083     0.03540
C805        C  0.51000271  0.37214401  0.26674262     0.38190
C806        C  0.54062562  0.24975704  0.17388326     0.38180
C807        C  0.48431058  0.29991771  0.15362470     0.36600
C808        C  0.57252468  0.32757101  0.28026189     0.36610
N809        N  0.46910556  0.29550210  0.12608315    -0.38210
N810        N  0.58997321  0.33206605  0.30645312    -0.38220
N811        N  0.54432545  0.22261864  0.15776497    -0.37660
N812        N  0.50360749  0.39562348  0.28714100    -0.37660
C813        C  0.13094736  0.86187333  0.27682291    -0.04330
C814        C  0.13055732  0.88942222  0.24999744    -0.01450
C815        C  0.10598241  0.91878376  0.25322053     0.03540
C816        C  0.08746389  0.92504425  0.28650877    -0.04330
C817        C  0.09045140  0.89930712  0.31505562    -0.01430
C818        C  0.11099795  0.86700029  0.30964795     0.03540
C819        C  0.15681234  0.88911991  0.22040615     0.38190
C820        C  0.07241937  0.90602948  0.34976882     0.38180
C821        C  0.11311870  0.83987602  0.33854455     0.36600
C822        C  0.09677268  0.94007268  0.22105648     0.36610
N823        N  0.11494805  0.81827135  0.36160642    -0.38210
N824        N  0.08818967  0.95587640  0.19498057    -0.38220
N825        N  0.05809378  0.91144454  0.37749849    -0.37660
N826        N  0.17875954  0.89029959  0.19766594    -0.37660
C827        C  0.12717601  0.12992249  0.28028666    -0.04330
C828        C  0.13659162  0.09999589  0.25761788    -0.01450
C829        C  0.11751729  0.06648925  0.26042730     0.03540
C830        C  0.08969270  0.06185203  0.28710178    -0.04330
C831        C  0.08199934  0.09121552  0.31136250    -0.01430
C832        C  0.09987506  0.12525887  0.30737998     0.03540
C833        C  0.16528793  0.10374985  0.23040947     0.38190
C834        C  0.05659401  0.08617679  0.34145187     0.38180
C835        C  0.09056762  0.15521058  0.33200017     0.36600
C836        C  0.12669969  0.03745446  0.23489058     0.36610
N837        N  0.08304383  0.17907735  0.35157250    -0.38210
N838        N  0.13578824  0.01533261  0.21405585    -0.38220
N839        N  0.03639294  0.08220478  0.36546881    -0.37660
N840        N  0.18829523  0.10636566  0.20885903    -0.37660
C841        C  0.72919049  0.85858352  0.72601155    -0.04330
C842        C  0.74869630  0.86656846  0.69368109    -0.01450
C843        C  0.77024029  0.89844050  0.69160015     0.03540
C844        C  0.77289217  0.92241401  0.72206324    -0.04330
C845        C  0.75331066  0.91446188  0.75442693    -0.01430
C846        C  0.73128908  0.88269487  0.75630606     0.03540
C847        C  0.74609789  0.84217394  0.66217108     0.38190
C848        C  0.75654243  0.93848409  0.78607276     0.38180
C849        C  0.71185054  0.87419518  0.78980623     0.36600
C850        C  0.78886754  0.90701047  0.65759172     0.36610
N851        N  0.69637849  0.86753370  0.81658309    -0.38210
N852        N  0.80376758  0.91381930  0.63052650    -0.38220
N853        N  0.75912967  0.95771489  0.81127221    -0.37660
N854        N  0.74403860  0.82267975  0.63712451    -0.37660
C855        C  0.77047170  0.05886956  0.70798850    -0.04330
C856        C  0.78862339  0.09225786  0.71618608    -0.01450
C857        C  0.76971311  0.12555274  0.71356578     0.03540
C858        C  0.73081997  0.12624077  0.71558178    -0.04330
C859        C  0.71201539  0.09276292  0.70927486    -0.01430
C860        C  0.73198038  0.06036194  0.70141079     0.03540
C861        C  0.82609733  0.09331108  0.72960568     0.38190
C862        C  0.67234137  0.09126489  0.70946777     0.38180
C863        C  0.71276796  0.02960093  0.68480333     0.36600
C864        C  0.79099198  0.15816757  0.70533970     0.36610
N865        N  0.69732922  0.00521159  0.67142389    -0.38210
N866        N  0.80807837  0.18391702  0.69825454    -0.38220
N867        N  0.64068743  0.08979163  0.70971567    -0.37660
N868        N  0.85588164  0.09447996  0.74051962    -0.37660
C869        C  0.96698202  0.99120070  0.69696167    -0.04330
C870        C  0.94807604  0.99331876  0.73053380    -0.01450
C871        C  0.90949231  0.99310842  0.73099616     0.03540
C872        C  0.88941634  0.99032205  0.69790855    -0.04330
C873        C  0.90824306  0.98834073  0.66426510    -0.01430
C874        C  0.94698522  0.98881240  0.66379012     0.03540
C875        C  0.96836878  0.99532432  0.76473327     0.38190
C876        C  0.88772230  0.98549464  0.63029121     0.38180
C877        C  0.96636188  0.98672295  0.62925327     0.36600
C878        C  0.89029920  0.99608504  0.76563557     0.36610
N879        N  0.98192685  0.98505642  0.60173609    -0.38210
N880        N  0.87486895  0.99852260  0.79317356    -0.38220
N881        N  0.87127844  0.98322560  0.60319563    -0.37660
N882        N  0.98439349  0.99672069  0.79212190    -0.37660
C883        C  0.08712431  0.92457839  0.70638580    -0.04330
C884        C  0.08456440  0.89611257  0.68014238    -0.01450
C885        C  0.10462439  0.86344066  0.68486115     0.03540
C886        C  0.12771968  0.85889665  0.71584214    -0.04330
C887        C  0.13087110  0.88770580  0.74171474    -0.01430
C888        C  0.11045648  0.92021772  0.73718501     0.03540
C889        C  0.06187755  0.90071701  0.64772419     0.38190
C890        C  0.15406525  0.88355808  0.77383462     0.38180
C891        C  0.11270981  0.94873887  0.76500327     0.36600
C892        C  0.10209477  0.83486187  0.65711345     0.36610
N893        N  0.11468879  0.97149974  0.78713265    -0.38210
N894        N  0.09998521  0.81206221  0.63503150    -0.38220
N895        N  0.17258856  0.88046441  0.79944383    -0.37660
N896        N  0.04370517  0.90438047  0.62194519    -0.37660
C897        C  0.08494859  0.06067035  0.70550297    -0.04330
C898        C  0.08681175  0.07585435  0.74108580    -0.01450
C899        C  0.10628546  0.10861466  0.74741300     0.03540
C900        C  0.12566635  0.12535948  0.71865336    -0.04330
C901        C  0.12370863  0.11025971  0.68295002    -0.01430
C902        C  0.10330804  0.07797283  0.67638579     0.03540
C903        C  0.06904970  0.05748313  0.77139665     0.38190
C904        C  0.14124427  0.12887365  0.65265830     0.38180
C905        C  0.10061211  0.06286861  0.63963646     0.36600
C906        C  0.10508308  0.12567133  0.78327612     0.36610
N907        N  0.09831974  0.05086150  0.61030041    -0.38210
N908        N  0.10343567  0.13882983  0.81210285    -0.38220
N909        N  0.15483295  0.14380214  0.62831689    -0.37660
N910        N  0.05521470  0.04285163  0.79576575    -0.37660
C911        C  0.89213618  0.99598005  0.29342452    -0.04330
C912        C  0.91160949  0.98990588  0.32633376    -0.01450
C913        C  0.95028337  0.98910017  0.32620234     0.03540
C914        C  0.96957995  0.99438445  0.29315806    -0.04330
C915        C  0.95006944  0.00012406  0.26024895    -0.01430
C916        C  0.91149539  0.00083915  0.26035366     0.03540
C917        C  0.89182441  0.98505404  0.36034497     0.38190
C918        C  0.96979674  0.00476602  0.22615540     0.38180
C919        C  0.89160102  0.00591925  0.22625426     0.36600
C920        C  0.97029534  0.98335855  0.36010360     0.36610
N921        N  0.87559288  0.00991521  0.19913503    -0.38210
N922        N  0.98631503  0.97879983  0.38712741    -0.38220
N923        N  0.98567520  0.00843280  0.19903816    -0.37660
N924        N  0.87597756  0.98119735  0.38745805    -0.37660
C925        C  0.73052172  0.86532666  0.27033823    -0.04330
C926        C  0.76448253  0.87064175  0.25248763    -0.01450
C927        C  0.78426328  0.90340824  0.25752454     0.03540
C928        C  0.77185247  0.93023818  0.28268033    -0.04330
C929        C  0.73769851  0.92501331  0.30032013    -0.01430
C930        C  0.71627995  0.89366106  0.29255415     0.03540
C931        C  0.77865371  0.84296832  0.22755240     0.38190
C932        C  0.72498524  0.95112331  0.32757178     0.38180
C933        C  0.67975318  0.89067205  0.30772011     0.36600
C934        C  0.81681303  0.90977164  0.23568037     0.36610
N935        N  0.65038374  0.88870433  0.31934696    -0.38210
N936        N  0.84274160  0.91475205  0.21825959    -0.38220
N937        N  0.71478202  0.97190406  0.34930146    -0.37660
N938        N  0.78981232  0.82125900  0.20726741    -0.37660
C939        C  0.77534458  0.06671654  0.27844419    -0.04330
C940        C  0.77722450  0.09374329  0.30622635    -0.01450
C941        C  0.75664802  0.12618890  0.30305405     0.03540
C942        C  0.73295412  0.13137792  0.27267255    -0.04330
C943        C  0.72952095  0.10337831  0.24599832    -0.01430
C944        C  0.75187095  0.07201003  0.24797867     0.03540
C945        C  0.79928676  0.08767340  0.33884156     0.38190
C946        C  0.70255364  0.10616313  0.21686768     0.38180
C947        C  0.75125561  0.04554290  0.21812291     0.36600
C948        C  0.75847929  0.15337446  0.33224290     0.36610
N949        N  0.75083983  0.02445206  0.19432633    -0.38210
N950        N  0.75991197  0.17500899  0.35551585    -0.38220
N951        N  0.68049306  0.10759166  0.19406660    -0.37660
N952        N  0.81683891  0.08282185  0.36484653    -0.37660
C953        C  0.85886992  0.28781724  0.15758616    -0.04330
C954        C  0.84726223  0.25251770  0.16828510    -0.01450
C955        C  0.81551744  0.24831330  0.18961332     0.03540
C956        C  0.79410864  0.27916880  0.19847643    -0.04330
C957        C  0.80550320  0.31448894  0.18755723    -0.01430
C958        C  0.83813460  0.31884970  0.16751650     0.03540
C959        C  0.86729330  0.22038247  0.15621709     0.38190
C960        C  0.78394115  0.34634997  0.19761373     0.38180
C961        C  0.85039393  0.35514699  0.15706534     0.36600
C962        C  0.80480417  0.21223373  0.20228559     0.36610
N963        N  0.86021047  0.38410150  0.14872839    -0.38210
N964        N  0.79666799  0.18348636  0.21280906    -0.38220
N965        N  0.76671513  0.37168832  0.20578512    -0.37660
N966        N  0.88286751  0.19464514  0.14618705    -0.37660
C967        C  0.99496936  0.28526392  0.16173564    -0.04330
C968        C  0.99908867  0.25640348  0.18739681    -0.01450
C969        C  0.03171822  0.25285066  0.20797608     0.03540
C970        C  0.06106359  0.27730701  0.20231039    -0.04330
C971        C  0.05705341  0.30602324  0.17650773    -0.01430
C972        C  0.02393830  0.31048683  0.15712243     0.03540
C973        C  0.97040724  0.22931626  0.19199532     0.38190
C974        C  0.08697657  0.33139238  0.16976251     0.38180
C975        C  0.01955005  0.34184854  0.13317580     0.36600
C976        C  0.03571797  0.22271076  0.23353017     0.36610
N977        N  0.01648642  0.36706615  0.11430388    -0.38210
N978        N  0.03881442  0.19864916  0.25386962    -0.38220
N979        N  0.11082007  0.35152412  0.16420456    -0.37660
N980        N  0.94786707  0.20747010  0.19630524    -0.37660
C981        C  0.85963262  0.71156994  0.84057580    -0.04330
C982        C  0.85235413  0.74190845  0.81760411    -0.01450
C983        C  0.81935057  0.74369496  0.79751058     0.03540
C984        C  0.79279451  0.71579171  0.80114898    -0.04330
C985        C  0.79984081  0.68571373  0.82450641    -0.01430
C986        C  0.83333467  0.68330839  0.84361163     0.03540
C987        C  0.87831041  0.77200096  0.81547671     0.38190
C988        C  0.77288055  0.65670246  0.82844866     0.38180
C989        C  0.84103265  0.65116265  0.86565319     0.36600
C990        C  0.81225197  0.77510666  0.77427396     0.36610
N991        N  0.84712489  0.62554589  0.88324135    -0.38210
N992        N  0.80693432  0.80024575  0.75577548    -0.38220
N993        N  0.75135096  0.63363943  0.83165660    -0.37660
N994        N  0.89907905  0.79591621  0.81373975    -0.37660
C995        C  0.99629912  0.71335707  0.83800284    -0.04330
C996        C  0.00341698  0.69158926  0.80656588    -0.01450
C997        C  0.03462837  0.69841208  0.78500976     0.03540
C998        C  0.06077671  0.72453268  0.79664735    -0.04330
C999        C  0.05267915  0.74775936  0.82655359    -0.01430
C1000       C  0.02058290  0.74231388  0.84711579     0.03540
C1001       C  0.97941919  0.66123624  0.79699114     0.38190
C1002       C  0.07608669  0.77906899  0.83433349     0.38180
C1003       C  0.01229467  0.76723527  0.87705322     0.36600
C1004       C  0.03902595  0.67941988  0.75031411     0.36610
N1005       N  0.00595360  0.78715769  0.90096212    -0.38210
N1006       N  0.04187211  0.66492428  0.72218322    -0.38220
N1007       N  0.09442191  0.80438216  0.84003680    -0.37660
N1008       N  0.96036220  0.63696880  0.78937648    -0.37660
C1009       C  0.20531960  0.18956265  0.86591822    -0.04330
C1010       C  0.21804672  0.20907571  0.89714032    -0.01450
C1011       C  0.22673011  0.19026691  0.92981864     0.03540
C1012       C  0.21723311  0.15271952  0.93420414    -0.04330
C1013       C  0.20102802  0.13415544  0.90401038    -0.01430
C1014       C  0.19814319  0.15138095  0.86959075     0.03540
C1015       C  0.22350294  0.24851579  0.89591445     0.38190
C1016       C  0.18594042  0.09751540  0.90797733     0.38180
C1017       C  0.18878843  0.12866584  0.83811213     0.36600
C1018       C  0.24702965  0.20993770  0.95793837     0.36610
N1019       N  0.18263941  0.10979141  0.81324822    -0.38210
N1020       N  0.26317528  0.22679071  0.97954058    -0.38220
N1021       N  0.17384090  0.06829608  0.91047457    -0.37660
N1022       N  0.22766177  0.27997674  0.89530275    -0.37660
C1023       C  0.21254294  0.15462665  0.07135355    -0.04330
C1024       C  0.23554404  0.18463806  0.08001461    -0.01450
C1025       C  0.22750187  0.20753690  0.11006910     0.03540
C1026       C  0.19899971  0.19809464  0.13421400    -0.04330
C1027       C  0.17602186  0.16793705  0.12573870    -0.01430
C1028       C  0.18242239  0.14661968  0.09404898     0.03540
C1029       C  0.26922648  0.19019204  0.05986762     0.38190
C1030       C  0.14495796  0.15969730  0.14897387     0.38180
C1031       C  0.15812461  0.11642660  0.08485824     0.36600
C1032       C  0.24861866  0.24075758  0.11596457     0.36610
N1033       N  0.13884773  0.09225213  0.07752734    -0.38210
N1034       N  0.26493775  0.26771455  0.11992951    -0.38220
N1035       N  0.12007815  0.15327448  0.16741615    -0.37660
N1036       N  0.29668519  0.19411052  0.04466658    -0.37660
C1037       C  0.64974145  0.79453066  0.86629541    -0.04330
C1038       C  0.61712166  0.81376529  0.87426468    -0.01450
C1039       C  0.61441362  0.83488192  0.90653341     0.03540
C1040       C  0.64452059  0.83746052  0.93079065    -0.04330
C1041       C  0.67722433  0.81832578  0.92272240    -0.01430
C1042       C  0.67969334  0.79663397  0.89071723     0.03540
C1043       C  0.58605251  0.81146519  0.84937748     0.38190
C1044       C  0.70875173  0.82184964  0.94681208     0.38180
C1045       C  0.71356434  0.77774976  0.88217198     0.36600
C1046       C  0.58029906  0.85331532  0.91513364     0.36610
N1047       N  0.74061441  0.76272895  0.87541540    -0.38210
N1048       N  0.55311109  0.86803597  0.92198413    -0.38220
N1049       N  0.73385819  0.82470759  0.96606868    -0.37660
N1050       N  0.56135901  0.80963160  0.82947179    -0.37660
C1051       C  0.64354895  0.83727781  0.06736144    -0.04330
C1052       C  0.66840020  0.84960677  0.09455179    -0.01450
C1053       C  0.67288797  0.82975806  0.12731406     0.03540
C1054       C  0.65468679  0.79586092  0.13250300    -0.04330
C1055       C  0.63108517  0.78264141  0.10468650    -0.01430
C1056       C  0.62463200  0.80372292  0.07287595     0.03540
C1057       C  0.69035671  0.88227895  0.08865755     0.38190
C1058       C  0.61192035  0.74817620  0.10932264     0.38180
C1059       C  0.59742572  0.79128736  0.04646529     0.36600
C1060       C  0.69620109  0.84485686  0.15584033     0.36610
N1061       N  0.57582271  0.78126901  0.02537916    -0.38210
N1062       N  0.71427705  0.85792401  0.17845576    -0.38220
N1063       N  0.59637746  0.72072280  0.11237541    -0.37660
N1064       N  0.70782942  0.90834425  0.08408494    -0.37660
C1065       C  0.93059042  0.28958653  0.96241005    -0.04330
C1066       C  0.91789508  0.25907164  0.98248629    -0.01450
C1067       C  0.91716701  0.26023150  0.02112905     0.03540
C1068       C  0.92917199  0.29187099  0.04016227    -0.04330
C1069       C  0.94169203  0.32247843  0.02013610    -0.01430
C1070       C  0.94260371  0.32126299  0.98140494     0.03540
C1071       C  0.90609267  0.22612059  0.96333950     0.38190
C1072       C  0.95222413  0.35579838  0.03927818     0.38180
C1073       C  0.95496722  0.35298057  0.96103464     0.36600
C1074       C  0.90427952  0.22863726  0.04137504     0.36610
N1075       N  0.96485806  0.37824008  0.94472805    -0.38210
N1076       N  0.89388188  0.20347897  0.05750906    -0.38220
N1077       N  0.96030595  0.38266001  0.05426306    -0.37660
N1078       N  0.89661315  0.19993253  0.94796672    -0.37660
C1079       C  0.79288254  0.26950385  0.80728276    -0.04330
C1080       C  0.80005740  0.30087516  0.82922690    -0.01450
C1081       C  0.83437907  0.30538636  0.84649490     0.03540
C1082       C  0.86083524  0.27729186  0.84456565    -0.04330
C1083       C  0.85250823  0.24456808  0.82540374    -0.01430
C1084       C  0.81862848  0.24064617  0.80705190     0.03960
C1085       C  0.77143929  0.32733927  0.83660178     0.38190
C1086       C  0.87813153  0.21417794  0.82598921     0.38180
C1087       C  0.80837660  0.20506140  0.79264743     0.36600
C1088       C  0.84262290  0.33929841  0.86585637     0.36610
N1089       N  0.80029977  0.17585828  0.78317937    -0.38210
N1090       N  0.84925128  0.36635467  0.88121364    -0.38220
N1091       N  0.89858261  0.18997995  0.82650857    -0.37660
N1092       N  0.74846114  0.34775492  0.84423443    -0.37660
C1093       C  0.99802616  0.27871659  0.84261875    -0.04330
C1094       C  0.00550709  0.30157400  0.81227592    -0.01450
C1095       C  0.03787089  0.29673484  0.79172267     0.03540
C1096       C  0.06359600  0.26972731  0.80187458    -0.04330
C1097       C  0.05694274  0.24812208  0.83326552    -0.01430
C1098       C  0.02380274  0.25161299  0.85264570     0.03540
C1099       C  0.98064393  0.33116008  0.80301922     0.38190
C1100       C  0.08478621  0.22315173  0.84668070     0.38180
C1101       C  0.01600898  0.22658138  0.88244424     0.36600
C1102       C  0.04595072  0.32164066  0.76199264     0.36610
N1103       N  0.00977038  0.20662594  0.90618916    -0.38210
N1104       N  0.05213996  0.34215280  0.73874402    -0.38220
N1105       N  0.10726086  0.20403344  0.85820993    -0.37660
N1106       N  0.96083629  0.35476401  0.79564528    -0.37660
C1107       C  0.93202543  0.69932819  0.03549074    -0.04330
C1108       C  0.93059811  0.66635625  0.01507922    -0.01450
C1109       C  0.92985778  0.66735175  0.97639192     0.03540
C1110       C  0.93057441  0.70130996  0.95802496    -0.04330
C1111       C  0.93149099  0.73424902  0.97845591    -0.01430
C1112       C  0.93229016  0.73326950  0.01706641     0.03540
C1113       C  0.92917856  0.63148930  0.03396508     0.38190
C1114       C  0.93118619  0.76920031  0.95966152     0.38180
C1115       C  0.93355219  0.76721641  0.03790988     0.36600
C1116       C  0.92793780  0.63352366  0.95542400     0.36610
N1117       N  0.93451139  0.79425609  0.05460792    -0.38210
N1118       N  0.92631151  0.60656207  0.93864342    -0.38220
N1119       N  0.93074555  0.79706903  0.94464579    -0.37660
N1120       N  0.92793933  0.60371289  0.04911194    -0.37660
C1121       C  0.86738575  0.71074852  0.15625237    -0.04330
C1122       C  0.86579905  0.73347070  0.18790668    -0.01450
C1123       C  0.83309002  0.73634107  0.20837211     0.03540
C1124       C  0.80014653  0.72029611  0.19510656    -0.04330
C1125       C  0.80161711  0.69887954  0.16234653    -0.01430
C1126       C  0.83522793  0.69224155  0.14479383     0.03540
C1127       C  0.89734465  0.75509106  0.19915619     0.38190
C1128       C  0.76882056  0.68311167  0.14589397     0.38180
C1129       C  0.83655737  0.66506591  0.11550713     0.36600
C1130       C  0.83382198  0.75636312  0.24284958     0.36610
N1131       N  0.83744702  0.64348511  0.09216586    -0.38210
N1132       N  0.83477314  0.77204754  0.27049344    -0.38220
N1133       N  0.74283227  0.67107985  0.13208881    -0.37660
N1134       N  0.92246488  0.77223204  0.20837961    -0.37660
C1135       C  0.00439266  0.69788684  0.15174364    -0.04330
C1136       C  0.01260073  0.67751398  0.18367142    -0.01450
C1137       C  0.04500807  0.68475530  0.20381726     0.03540
C1138       C  0.07063706  0.71074589  0.19100275    -0.04330
C1139       C  0.06412533  0.72802730  0.15701469    -0.01430
C1140       C  0.03040851  0.72355362  0.13883233     0.03540
C1141       C  0.98847360  0.64810511  0.19510827     0.38190
C1142       C  0.09269248  0.74885177  0.13916326     0.38180
C1143       C  0.02245295  0.74660547  0.10741901     0.36600
C1144       C  0.05320303  0.66318528  0.23605824     0.36610
N1145       N  0.01642029  0.76503241  0.08238335    -0.38210
N1146       N  0.05940913  0.64529812  0.26141169    -0.38220
N1147       N  0.11544508  0.76400641  0.12333379    -0.37660
N1148       N  0.96934158  0.62455715  0.20421866    -0.37660
C1149       C  0.63094667  0.03514393  0.99734877    -0.04330
C1150       C  0.60113114  0.01572127  0.01257764    -0.01450
C1151       C  0.60113938  0.97684622  0.01314375     0.03540
C1152       C  0.63106327  0.95697649  0.99866305    -0.04330
C1153       C  0.66106721  0.97649955  0.98395324    -0.01430
C1154       C  0.66092774  0.01519512  0.98316069     0.03540
C1155       C  0.57004259  0.03574052  0.02697415     0.38190
C1156       C  0.69280962  0.95675606  0.97046896     0.38180
C1157       C  0.69235469  0.03444049  0.96850080     0.36600
C1158       C  0.56994735  0.95728799  0.02787313     0.36610
N1159       N  0.71757316  0.04943042  0.95666890    -0.38210
N1160       N  0.54508455  0.94164425  0.03966027    -0.38220
N1161       N  0.71803617  0.94094500  0.95966804    -0.37660
N1162       N  0.54526204  0.05174453  0.03850303    -0.37660
C1163       C  0.64100349  0.15294999  0.92679414    -0.04330
C1164       C  0.61038807  0.16992087  0.91036431    -0.01450
C1165       C  0.61467077  0.19040554  0.87792585     0.03540
C1166       C  0.64958202  0.19397292  0.86188680    -0.04330
C1167       C  0.68024939  0.17764746  0.87873449    -0.01430
C1168       C  0.67604857  0.15750747  0.91131519     0.03540
C1169       C  0.57459054  0.16651109  0.92705861     0.38190
C1170       C  0.71619072  0.18167127  0.86255302     0.38180
C1171       C  0.70795010  0.14228915  0.92946115     0.36600
C1172       C  0.58316211  0.20754231  0.86081708     0.36610
N1173       N  0.73354778  0.13058359  0.94403943    -0.38210
N1174       N  0.55804408  0.22124243  0.84716852    -0.38220
N1175       N  0.74493876  0.18486055  0.84978864    -0.37660
N1176       N  0.54606307  0.16383645  0.94047114    -0.37660
C1177       C  0.65723390  0.20046446  0.12616819    -0.04330
C1178       C  0.68077402  0.17103683  0.11748462    -0.01450
C1179       C  0.67442674  0.14939781  0.08593980     0.03540
C1180       C  0.64433314  0.15700620  0.06270569    -0.04330
C1181       C  0.62218452  0.18800351  0.07023214    -0.01430
C1182       C  0.62956180  0.21040866  0.10106189     0.03540
C1183       C  0.71311377  0.16467005  0.13968937     0.38190
C1184       C  0.59104145  0.19633486  0.04690303     0.38180
C1185       C  0.60935187  0.24419260  0.10627748     0.36600
C1186       C  0.69958741  0.11998069  0.07689851     0.36610
N1187       N  0.59383182  0.27162209  0.10975703    -0.38210
N1188       N  0.71959911  0.09649058  0.06965811    -0.38220
N1189       N  0.56616807  0.20295752  0.02834568    -0.37660
N1190       N  0.73927907  0.15973340  0.15692033    -0.37660
C1191       C  0.23776004  0.95897010  0.00407907    -0.04330
C1192       C  0.27053069  0.97873622  0.01036613    -0.01450
C1193       C  0.27025751  0.01756577  0.01072057     0.03540
C1194       C  0.23718676  0.03672323  0.00504429    -0.04330
C1195       C  0.20437111  0.01687760  0.99943794    -0.01430
C1196       C  0.20469587  0.97823964  0.99868219     0.03540
C1197       C  0.30454551  0.95907168  0.01592017     0.38190
C1198       C  0.17002904  0.03633917  0.99494929     0.38180
C1199       C  0.17082363  0.95819672  0.99271368     0.36600
C1200       C  0.30389318  0.03784152  0.01684269     0.36610
N1201       N  0.14389331  0.94210730  0.98787229    -0.38210
N1202       N  0.33073427  0.05406413  0.02174671    -0.38220
N1203       N  0.14267647  0.05193727  0.99148900    -0.37660
N1204       N  0.33165644  0.94329453  0.02036195    -0.37660
C1205       C  0.22144089  0.84203375  0.93250655    -0.04330
C1206       C  0.24632500  0.84507640  0.90317507    -0.01450
C1207       C  0.24003222  0.82567075  0.87024894     0.03540
C1208       C  0.20934755  0.80203326  0.86667029    -0.04330
C1209       C  0.18550476  0.79757496  0.89670395    -0.01430
C1210       C  0.19064828  0.81859587  0.92884356     0.03540
C1211       C  0.27922218  0.86714574  0.90724739     0.38190
C1212       C  0.15588352  0.77107548  0.89503641     0.38180
C1213       C  0.16357925  0.81667669  0.95781781     0.36600
C1214       C  0.26645142  0.82863009  0.84075329     0.36610
N1215       N  0.14204306  0.81515375  0.98094020    -0.38210
N1216       N  0.28751466  0.83096944  0.81726633    -0.38220
N1217       N  0.13265717  0.74946567  0.89434145    -0.37660
N1218       N  0.30545381  0.88471866  0.91048889    -0.37660
C1219       C  0.21123761  0.79388010  0.13011703    -0.04330
C1220       C  0.23971206  0.78376659  0.10608488    -0.01450
C1221       C  0.24849065  0.80632333  0.07600599     0.03540
C1222       C  0.22721028  0.83779351  0.06825979    -0.04330
C1223       C  0.19662544  0.84589077  0.09047664    -0.01430
C1224       C  0.18889012  0.82422295  0.12134800     0.03540
C1225       C  0.25954974  0.74985658  0.11175809     0.38190
C1226       C  0.17215137  0.87571482  0.08087553     0.38180
C1227       C  0.15625802  0.83164260  0.14263685     0.36600
C1228       C  0.27997106  0.79753444  0.05350748     0.36610
N1229       N  0.12966125  0.83711560  0.15889698    -0.38210
N1230       N  0.30511257  0.79054606  0.03559958    -0.38220
N1231       N  0.15263068  0.89946059  0.07320492    -0.37660
N1232       N  0.27487709  0.72238725  0.11561822    -0.37660
loop_ 
_geom_bond_atom_site_label_1 
_geom_bond_atom_site_label_2 
_geom_bond_distance 
_geom_bond_site_symmetry_2 
_ccdc_geom_bond_type 
C1            C2   1.399   1_556  A
C1            C6   1.405       .  A
C1         C1205   1.491       .  S
C2            C3   1.398       .  A
C2            H7   1.084   1_554  S
C3            C4   1.408       .  A
C3         C1222   1.491       .  S
C4            C5   1.406       .  A
C4            H8   1.084       .  S
C5            C6   1.405   1_554  A
C5         C1191   1.491       .  S
C6            H9   1.084       .  S
C10          C11   1.400   1_554  A
C10          C15   1.411       .  A
C10        C1180   1.494       .  S
C11          C12   1.395       .  A
C11          H16   1.084       .  S
C12          C13   1.404       .  A
C12        C1163   1.483       .  S
C13          C14   1.409       .  A
C13          H17   1.084       .  S
C14          C15   1.409   1_556  A
C14        C1149   1.500       .  S
C15          H18   1.084       .  S
C19          C20   1.406       .  A
C19          C24   1.405       .  A
C19        C1135   1.496   1_655  S
C20          C21   1.398       .  A
C20          H25   1.084       .  S
C21          C22   1.399       .  A
C21        C1107   1.486       .  S
C22          C23   1.409       .  A
C22          H26   1.084       .  S
C23          C24   1.406       .  A
C23        C1121   1.503       .  S
C24          H27   1.080       .  S
C28          C29   1.401       .  A
C28          C33   1.403       .  A
C28        C1082   1.489       .  S
C29          C30   1.404       .  A
C29          H34   1.084       .  S
C30          C31   1.409       .  A
C30        C1093   1.496       .  S
C31          C32   1.405       .  A
C31          H35   1.084       .  S
C32          C33   1.402       .  A
C32        C1065   1.492       .  S
C33          H36   1.084       .  S
C37          C38   1.403       .  A
C37          C42   1.397       .  A
C37        C1040   1.487       .  S
C38          C39   1.406       .  A
C38          H43   1.084       .  S
C39          C40   1.409   1_556  A
C39        C1152   1.500       .  S
C40          C41   1.413       .  A
C40          H44   1.083       .  S
C41          C42   1.401   1_554  A
C41        C1051   1.500       .  S
C42          H45   1.084       .  S
C46          C47   1.414       .  A
C46          C51   1.405   1_556  A
C46        C1012   1.510       .  S
C47          C48   1.406   1_556  A
C47          H52   1.082       .  S
C48          C49   1.401       .  A
C48        C1194   1.490       .  S
C49          C50   1.402       .  A
C49          H53   1.084       .  S
C50          C51   1.400       .  A
C50        C1023   1.485       .  S
C51          H54   1.083       .  S
C55          C56   1.406       .  A
C55          C60   1.401       .  A
C55         C995   1.492       .  S
C56          C57   1.403       .  A
C56          H61   1.084       .  S
C57          C58   1.401       .  A
C57        C1110   1.484       .  S
C58          C59   1.404       .  A
C58          H62   1.084       .  S
C59          C60   1.400       .  A
C59         C981   1.490       .  S
C60          H63   1.084       .  S
C64          C65   1.401       .  A
C64          C69   1.398       .  A
C64         C953   1.480       .  S
C65          C66   1.404       .  A
C65          H70   1.084       .  S
C66          C67   1.406       .  A
C66        C1068   1.491       .  S
C67          C68   1.410       .  A
C67          H71   1.084       .  S
C68          C69   1.401       .  A
C68         C967   1.496       .  S
C69          H72   1.084       .  S
C73          C74   1.399   1_545  A
C73          C78   1.403       .  A
C73         C939   1.487       .  S
C74          C75   1.399       .  A
C74          H79   1.083       .  S
C75          C76   1.409       .  A
C75         C928   1.495       .  S
C76          C77   1.403       .  A
C76          H80   1.084       .  S
C77          C78   1.402   1_565  A
C77         C911   1.486       .  S
C78          H81   1.084       .  S
C82          C83   1.397   1_545  A
C82          C87   1.403       .  A
C82         C897   1.481       .  S
C83          C84   1.402       .  A
C83          H88   1.084       .  S
C84          C85   1.408       .  A
C84         C883   1.493       .  S
C85          C86   1.405       .  A
C85          H89   1.084       .  S
C86          C87   1.403   1_565  A
C86         C869   1.488   1_455  S
C87          H90   1.084       .  S
C91          C92   1.401       .  A
C91          C96   1.399       .  A
C91         C844   1.485       .  S
C92          C93   1.398       .  A
C92          H97   1.084       .  S
C93          C94   1.403   1_565  A
C93         C872   1.489       .  S
C94          C95   1.417       .  A
C94          H98   1.081       .  S
C95          C96   1.407   1_545  A
C95         C855   1.513       .  S
C96          H99   1.080       .  S
C100        C101   1.409       .  A
C100        C105   1.402   1_545  A
C100        C830   1.499       .  S
C101        C102   1.405   1_545  A
C101        H106   1.084       .  S
C102        C103   1.401       .  A
C102        C914   1.486   1_455  S
C103        C104   1.401       .  A
C103        H107   1.084       .  S
C104        C105   1.402       .  A
C104        C816   1.482       .  S
C105        H108   1.084       .  S
C109        C110   1.401       .  A
C109        C114   1.405       .  A
C109        C799   1.488       .  S
C110        C111   1.402       .  A
C110        H115   1.084       .  S
C111        C112   1.408       .  A
C111        C788   1.496       .  S
C112        C113   1.403       .  A
C112        H116   1.084       .  S
C113        C114   1.404       .  A
C113        C771   1.489       .  S
C114        H117   1.084       .  S
Fe118       O134   2.048       .  S
Fe118       O124   2.080       .  S
Fe118       O131   2.086       .  S
Fe118       O123   2.047       .  S
Fe118       O129   1.963       .  S
Fe119       O122   2.041       .  S
Fe119       O126   2.097       .  S
Fe119       O130   2.041       .  S
Fe119       O135   2.088       .  S
Fe119       O129   1.963       .  S
Fe120       O138   2.089       .  S
Fe120       O125   2.036       .  S
Fe120       O132   2.037       .  S
Fe120       O121   2.091       .  S
Fe120       O129   1.954       .  S
O121        C128   1.275       .  A
O122        C136   1.267       .  A
O123        C128   1.267       .  A
O124        C127   1.270       .  A
O125        C137   1.263       .  A
O126        C139   1.274       .  A
C127        C942   1.484       .  S
C127        O132   1.263       .  A
C128        C757   1.485       .  S
O130        C133   1.266       .  A
O131        C133   1.272       .  A
C133        C802   1.477       .  S
O134        C139   1.266       .  A
O135        C137   1.271       .  A
C136        C956   1.474       .  S
C136        O138   1.275       .  A
C137        C743   1.483       .  S
C139       C1177   1.487       .  S
C140        C141   1.395       .  A
C140        C145   1.406       .  A
C140        C715   1.485       .  S
C141        C142   1.398       .  A
C141        H146   1.085       .  S
C142        C143   1.410       .  A
C142        C732   1.492       .  S
C143        C144   1.412       .  A
C143        H147   1.084       .  S
C144        C145   1.410       .  A
C144        C701   1.503       .  S
C145        H148   1.084       .  S
C149        C150   1.396       .  A
C149        C154   1.406       .  A
C149        C687   1.485       .  S
C150        C151   1.399       .  A
C150        H155   1.084       .  S
C151        C152   1.409       .  A
C151        C760   1.490       .  S
C152        C153   1.411       .  A
C152        H156   1.084       .  S
C153        C154   1.410       .  A
C153        C676   1.505       .  S
C154        H157   1.084       .  S
Fe158       O174   2.100       .  S
Fe158       O164   2.018       .  S
Fe158       O171   2.033       .  S
Fe158       O163   2.117       .  S
Fe158       O169   1.941       .  S
Fe159       O162   2.105       .  S
Fe159       O166   2.044       .  S
Fe159       O170   2.110       .  S
Fe159       O175   2.034       .  S
Fe159       O169   1.946       .  S
Fe160       O178   2.043       .  S
Fe160       O165   2.105       .  S
Fe160       O172   2.121       .  S
Fe160       O161   2.032       .  S
Fe160       O169   1.957       .  S
O161        C168   1.265       .  A
O162        C176   1.279       .  A
O163        C168   1.281       .  A
O164        C167   1.256       .  A
O165        C177   1.275       .  A
O166        C179   1.263       .  A
C167        C858   1.510       .  S
C167        O172   1.276       .  A
C168        C690   1.480       .  S
O170        C173   1.280       .  A
O171        C173   1.264       .  A
C173        C659   1.501       .  S
O174        C179   1.276       .  A
O175        C177   1.262       .  A
C176       C1166   1.477       .  S
C176        O178   1.269       .  A
C177        C729   1.484       .  S
C179       C1079   1.492       .  S
C180        C181   1.404       .  A
C180        C185   1.401       .  A
C180        C746   1.490       .  S
C181        C182   1.401       .  A
C181        H186   1.084       .  S
C182        C183   1.406       .  A
C182        C631   1.489       .  S
C183        C184   1.412       .  A
C183        H187   1.083       .  S
C184        C185   1.404       .  A
C184        C645   1.506       .  S
C185        H188   1.083       .  S
C189        C190   1.407       .  A
C189        C194   1.399       .  A
C189        C606   1.491       .  S
C190        C191   1.404       .  A
C190        H195   1.084       .  S
C191        C192   1.404       .  A
C191        C774   1.488       .  S
C192        C193   1.406       .  A
C192        H196   1.084       .  S
C193        C194   1.399       .  A
C193        C617   1.494       .  S
C194        H197   1.084       .  S
Fe198       O214   2.102       .  S
Fe198       O204   2.021       .  S
Fe198       O211   2.025       .  S
Fe198       O203   2.100       .  S
Fe198       O209   1.959       .  S
Fe199       O202   2.099       .  S
Fe199       O206   2.033       .  S
Fe199       O210   2.101       .  S
Fe199       O215   2.034       .  S
Fe199       O209   1.956       .  S
Fe200       O218   2.039       .  S
Fe200       O205   2.112       .  S
Fe200       O212   2.114       .  S
Fe200       O201   2.034       .  S
Fe200       O209   1.946       .  S
O201        C208   1.262       .  A
O202        C216   1.275       .  A
O203        C208   1.275       .  A
O204        C207   1.262       .  A
O205        C217   1.278       .  A
O206        C219   1.264       .  A
C207        C648   1.498       .  S
C207        O212   1.279       .  A
C208       C1124   1.506       .  S
O210        C213   1.276       .  A
O211        C213   1.263       .  A
C213        C925   1.487       .  S
O214        C219   1.276       .  A
O215        C217   1.264       .  A
C216        C620   1.491       .  S
C216        O218   1.264       .  A
C217       C1054   1.493       .  S
C219        C592   1.479       .  S
C220        C221   1.405       .  A
C220        C225   1.398       .  A
C220        C575   1.488       .  S
C221        C222   1.404       .  A
C221        H226   1.084       .  S
C222        C223   1.405       .  A
C222        C561   1.488       .  S
C223        C224   1.406       .  A
C223        H227   1.084       .  S
C224        C225   1.398       .  A
C224        C589   1.487       .  S
C225        H228   1.084       .  S
C229        C230   1.404       .  A
C229        C234   1.412       .  A
C229        C662   1.503       .  S
C230        C231   1.395       .  A
C230        H235   1.083       .  S
C231        C232   1.402       .  A
C231        C547   1.483       .  S
C232        C233   1.406       .  A
C232        H236   1.084       .  S
C233        C234   1.406       .  A
C233        C634   1.495       .  S
C234        H237   1.083       .  S
C238        C239   1.396       .  A
C238        C243   1.405       .  A
C238        C533   1.484       .  S
C239        C240   1.396       .  A
C239        H244   1.085       .  S
C240        C241   1.405       .  A
C240        C519   1.481       .  S
C241        C242   1.408       .  A
C241        H245   1.084       .  S
C242        C243   1.410       .  A
C242        C704   1.498       .  S
C243        H246   1.084       .  S
Fe247       O263   2.036       .  S
Fe247       O253   2.088       .  S
Fe247       O260   2.088       .  S
Fe247       O252   2.029       .  S
Fe247       O258   1.961       .  S
Fe248       O251   2.045       .  S
Fe248       O255   2.101       .  S
Fe248       O259   2.036       .  S
Fe248       O264   2.094       .  S
Fe248       O258   1.958       .  S
Fe249       O267   2.089       .  S
Fe249       O254   2.029       .  S
Fe249       O261   2.036       .  S
Fe249       O250   2.092       .  S
Fe249       O258   1.960       .  S
O250        C257   1.273       .  A
O251        C265   1.266       .  A
O252        C257   1.263       .  A
O253        C256   1.273       .  A
O254        C266   1.263       .  A
O255        C268   1.276       .  A
C256        C578   1.484       .  S
C256        O261   1.264       .  A
C257        C841   1.476       .  S
O259        C262   1.263       .  A
O260        C262   1.272       .  A
C262        C984   1.483       .  S
O263        C268   1.264       .  A
O264        C266   1.274       .  A
C265        C522   1.476       .  S
C265        O267   1.272       .  A
C266       C1037   1.478       .  S
C268        C550   1.477       .  S
C269        C270   1.401       .  A
C269        C274   1.400       .  A
C269        C505   1.481       .  S
C270        C271   1.403       .  A
C270        H275   1.084       .  S
C271        C272   1.406       .  A
C271        C564   1.488       .  S
C272        C273   1.409       .  A
C272        H276   1.084       .  S
C273        C274   1.402       .  A
C273        C494   1.496       .  S
C274        H277   1.084       .  S
C278        C279   1.395       .  A
C278        C283   1.406       .  A
C278        C463   1.484       .  S
C279        C280   1.398       .  A
C279        H284   1.085       .  S
C280        C281   1.408       .  A
C280        C477   1.491       .  S
C281        C282   1.408       .  A
C281        H285   1.084       .  S
C282        C283   1.408       .  A
C282        C449   1.496       .  S
C283        H286   1.084       .  S
Fe287       O303   2.092       .  S
Fe287       O293   2.041       .  S
Fe287       O300   2.039       .  S
Fe287       O292   2.095       .  S
Fe287       O298   1.957       .  S
Fe288       O291   2.087       .  S
Fe288       O295   2.045       .  S
Fe288       O299   2.084       .  S
Fe288       O304   2.046       .  S
Fe288       O298   1.960       .  S
Fe289       O307   2.046       .  S
Fe289       O294   2.089       .  S
Fe289       O301   2.080       .  S
Fe289       O290   2.043       .  S
Fe289       O298   1.964       .  S
O290        C297   1.268       .  A
O291        C305   1.272       .  A
O292        C297   1.277       .  A
O293        C296   1.263       .  A
O294        C306   1.271       .  A
O295        C308   1.268       .  A
C296       C1208   1.487       .  S
C296        O301   1.269       .  A
C297        C536   1.479       .  S
O299        C302   1.271       .  A
O300        C302   1.263       .  A
C302        C508   1.481       .  S
O303        C308   1.276       .  A
O304        C306   1.266       .  A
C305        C998   1.484       .  S
C305        O307   1.268       .  A
C306        C466   1.477       .  S
C308        C886   1.490       .  S
C309        C310   1.405       .  A
C309        C314   1.396       .  A
C309        C421   1.487       .  S
C310        C311   1.409       .  A
C310        H315   1.084       .  S
C311        C312   1.408       .  A
C311        C673   1.501       .  S
C312        C313   1.408       .  A
C312        H316   1.083       .  S
C313        C314   1.399       .  A
C313        C435   1.492       .  S
C314        H317   1.084       .  S
Fe318       O334   2.028       .  S
Fe318       O324   2.101       .  S
Fe318       O331   2.106       .  S
Fe318       O323   2.037       .  S
Fe318       O329   1.958       .  S
Fe319       O322   2.040       .  S
Fe319       O326   2.102       .  S
Fe319       O330   2.036       .  S
Fe319       O335   2.100       .  S
Fe319       O329   1.956       .  S
Fe320       O338   2.096       .  S
Fe320       O325   2.031       .  S
Fe320       O332   2.029       .  S
Fe320       O321   2.101       .  S
Fe320       O329   1.960       .  S
O321        C328   1.275       .  A
O322        C336   1.263       .  A
O323        C328   1.263       .  A
O324        C327   1.276       .  A
O325        C337   1.264       .  A
O326        C339   1.276       .  A
C327        C424   1.479       .  S
C327        O332   1.263       .  A
C328        C900   1.477       .  S
O330        C333   1.263       .  A
O331        C333   1.277       .  A
C333       C1096   1.487       .  S
O334        C339   1.262       .  A
O335        C337   1.277       .  A
C336        C718   1.478       .  S
C336        O338   1.273       .  A
C337       C1009   1.505       .  S
C339        C480   1.487       .  S
C340        C341   1.407       .  A
C340        C345   1.400       .  A
C340        C393   1.493       .  S
C341        C342   1.405       .  A
C341        H346   1.084       .  S
C342        C343   1.404       .  A
C342        C452   1.494       .  S
C343        C344   1.406       .  A
C343        H347   1.084       .  S
C344        C345   1.399       .  A
C344        C407   1.489       .  S
C345        H348   1.084       .  S
Fe349       O365   2.040       .  S
Fe349       O355   2.092       .  S
Fe349       O362   2.095       .  S
Fe349       O354   2.037       .  S
Fe349       O360   1.952       .  S
Fe350       O353   2.031       .  S
Fe350       O357   2.107       .  S
Fe350       O361   2.035       .  S
Fe350       O366   2.100       .  S
Fe350       O360   1.951       .  S
Fe351       O369   2.112       .  S
Fe351       O356   2.030       .  S
Fe351       O363   2.039       .  S
Fe351       O352   2.099       .  S
Fe351       O360   1.944       .  S
O352        C359   1.277       .  A
O353        C367   1.265       .  A
O354        C359   1.266       .  A
O355        C358   1.273       .  A
O356        C368   1.262       .  A
O357        C370   1.278       .  A
C358        C813   1.479       .  S
C358        O363   1.266       .  A
C359        C491   1.485       .  S
O361        C364   1.264       .  A
O362        C364   1.273       .  A
C364        C603   1.482       .  S
O365        C370   1.267       .  A
O366        C368   1.275       .  A
C367       C1138   1.489       .  S
C367        O369   1.279       .  A
C368        C396   1.490       .  S
C370       C1219   1.486       .  S
Fe371       O387   2.093       .  S
Fe371       O377   2.039       .  S
Fe371       O384   2.029       .  S
Fe371       O376   2.097       .  S
Fe371       O382   1.943       .  S
Fe372       O375   2.110       .  S
Fe372       O379   2.035       .  S
Fe372       O383   2.112       .  S
Fe372       O388   2.034       .  S
Fe372       O382   1.943       .  S
Fe373       O391   2.025       .  S
Fe373       O378   2.104       .  S
Fe373       O385   2.099       .  S
Fe373       O374   2.033       .  S
Fe373       O382   1.944       .  S
O374        C381   1.265       .  A
O375        C389   1.279       .  A
O376        C381   1.276       .  A
O377        C380   1.265       .  A
O378        C390   1.277       .  A
O379        C392   1.263       .  A
C380       C1026   1.481       .  S
C380        O385   1.275       .  A
C381        C785   1.489       .  S
O383        C386   1.280       .  A
O384        C386   1.264       .  A
C386        C438   1.485       .  S
O387        C392   1.274       .  A
O388        C390   1.263       .  A
C389        C970   1.488       .  S
C389        O391   1.262       .  A
C390        C410   1.483       .  S
C392        C827   1.488       .  S
C393        C394   1.418       .  A
C393        C398   1.412       .  A
C394        C395   1.412       .  A
C394        C399   1.452       .  S
C395        C396   1.413       .  A
C395        C402   1.451       .  S
C396        C397   1.421       .  A
C397        C398   1.408       .  A
C397        C400   1.454       .  S
C398        C401   1.453       .  S
C399        N406   1.157       .  T
C400        N405   1.158       .  T
C401        N403   1.157       .  T
C402        N404   1.157       .  T
C407        C408   1.414       .  A
C407        C412   1.414       .  A
C408        C409   1.408       .  A
C408        C413   1.453       .  S
C409        C410   1.414       .  A
C409        C416   1.450       .  S
C410        C411   1.412       .  A
C411        C412   1.411       .  A
C411        C414   1.450       .  S
C412        C415   1.452       .  S
C413        N420   1.157       .  T
C414        N419   1.157       .  T
C415        N417   1.157       .  T
C416        N418   1.156       .  T
C421        C422   1.411       .  A
C421        C426   1.416       .  A
C422        C423   1.409       .  A
C422        C427   1.451       .  S
C423        C424   1.415       .  A
C423        C430   1.452       .  S
C424        C425   1.410       .  A
C425        C426   1.411       .  A
C425        C428   1.451       .  S
C426        C429   1.451       .  S
C427        N434   1.157       .  T
C428        N433   1.157       .  T
C429        N431   1.157       .  T
C430        N432   1.157       .  T
C435        C436   1.417       .  A
C435        C440   1.413       .  A
C436        C437   1.411       .  A
C436        C441   1.452       .  S
C437        C438   1.412       .  A
C437        C444   1.451       .  S
C438        C439   1.416       .  A
C439        C440   1.409       .  A
C439        C442   1.451       .  S
C440        C443   1.452       .  S
C441        N448   1.157       .  T
C442        N447   1.157       .  T
C443        N445   1.157       .  T
C444        N446   1.157       .  T
C449        C450   1.414       .  A
C449        C454   1.415       .  A
C450        C451   1.411       .  A
C450        C455   1.448       .  S
C451        C452   1.413       .  A
C451        C458   1.452       .  S
C452        C453   1.414       .  A
C453        C454   1.415       .  A
C453        C456   1.451       .  S
C454        C457   1.449       .  S
C455        N462   1.156       .  T
C456        N461   1.157       .  T
C457        N459   1.157       .  T
C458        N460   1.157       .  T
C463        C464   1.412       .  A
C463        C468   1.414       .  A
C464        C465   1.407       .  A
C464        C469   1.449       .  S
C465        C466   1.408       .  A
C465        C472   1.450       .  S
C466        C467   1.409       .  A
C467        C468   1.411       .  A
C467        C470   1.448       .  S
C468        C471   1.450       .  S
C469        N476   1.156       .  T
C470        N475   1.157       .  T
C471        N473   1.157       .  T
C472        N474   1.157       .  T
C477        C478   1.418       .  A
C477        C482   1.411       .  A
C478        C479   1.412       .  A
C478        C483   1.452       .  S
C479        C480   1.412       .  A
C479        C486   1.451       .  S
C480        C481   1.419       .  A
C481        C482   1.409       .  A
C481        C484   1.453       .  S
C482        C485   1.451       .  S
C483        N490   1.157       .  T
C484        N489   1.158       .  T
C485        N487   1.157       .  T
C486        N488   1.157       .  T
C491        C492   1.410       .  A
C491        C496   1.415       .  A
C492        C493   1.411       .  A
C492        C497   1.452       .  S
C493        C494   1.419       .  A
C493        C500   1.449       .  S
C494        C495   1.414       .  A
C495        C496   1.411       .  A
C495        C498   1.451       .  S
C496        C499   1.453       .  S
C497        N504   1.157       .  T
C498        N503   1.157       .  T
C499        N501   1.157       .  T
C500        N502   1.156       .  T
C505        C506   1.411       .  A
C505        C510   1.409       .  A
C506        C507   1.408       .  A
C506        C511   1.450       .  S
C507        C508   1.410       .  A
C507        C514   1.449       .  S
C508        C509   1.416       .  A
C509        C510   1.410       .  A
C509        C512   1.452       .  S
C510        C513   1.451       .  S
C511        N518   1.157       .  T
C512        N517   1.157       .  T
C513        N515   1.157       .  T
C514        N516   1.157       .  T
C519        C520   1.411       .  A
C519        C524   1.412       .  A
C520        C521   1.410       .  A
C520        C525   1.450       .  S
C521        C522   1.412       .  A
C521        C528   1.451       .  S
C522        C523   1.408       .  A
C523        C524   1.410       .  A
C523        C526   1.449       .  S
C524        C527   1.451       .  S
C525        N532   1.157       .  T
C526        N531   1.157       .  T
C527        N529   1.157       .  T
C528        N530   1.157       .  T
C533        C534   1.410       .  A
C533        C538   1.414       .  A
C534        C535   1.411       .  A
C534        C539   1.450       .  S
C535        C536   1.414       .  A
C535        C542   1.452       .  S
C536        C537   1.410       .  A
C537        C538   1.410       .  A
C537        C540   1.451       .  S
C538        C541   1.451       .  S
C539        N546   1.157       .  T
C540        N545   1.157       .  T
C541        N543   1.157       .  T
C542        N544   1.157       .  T
C547        C548   1.413       .  A
C547        C552   1.409       .  A
C548        C549   1.411       .  A
C548        C553   1.451       .  S
C549        C550   1.411       .  A
C549        C556   1.451       .  S
C550        C551   1.410       .  A
C551        C552   1.408       .  A
C551        C554   1.447       .  S
C552        C555   1.449       .  S
C553        N560   1.157       .  T
C554        N559   1.155       .  T
C555        N557   1.157       .  T
C556        N558   1.157       .  T
C561        C562   1.412       .  A
C561        C566   1.412       .  A
C562        C563   1.413       .  A
C562        C567   1.451       .  S
C563        C564   1.413       .  A
C563        C570   1.450       .  S
C564        C565   1.412       .  A
C565        C566   1.411       .  A
C565        C568   1.451       .  S
C566        C569   1.451       .  S
C567        N574   1.157       .  T
C568        N573   1.157       .  T
C569        N571   1.157       .  T
C570        N572   1.157       .  T
C575        C576   1.417       .  A
C575        C580   1.412       .  A
C576        C577   1.410       .  A
C576        C581   1.452       .  S
C577        C578   1.412       .  A
C577        C584   1.451       .  S
C578        C579   1.417       .  A
C579        C580   1.408       .  A
C579        C582   1.453       .  S
C580        C583   1.452       .  S
C581        N588   1.157       .  T
C582        N587   1.157       .  T
C583        N585   1.157       .  T
C584        N586   1.157       .  T
C589        C590   1.413       .  A
C589        C594   1.415       .  A
C590        C591   1.408       .  A
C590        C595   1.452       .  S
C591        C592   1.413       .  A
C591        C598   1.452       .  S
C592        C593   1.410       .  A
C593        C594   1.410       .  A
C593        C596   1.450       .  S
C594        C597   1.451       .  S
C595        N602   1.157       .  T
C596        N601   1.157       .  T
C597        N599   1.157       .  T
C598        N600   1.158       .  T
C603        C604   1.410       .  A
C603        C608   1.413       .  A
C604        C605   1.410       .  A
C604        C609   1.450       .  S
C605        C606   1.417       .  A
C605        C612   1.451       .  S
C606        C607   1.415       .  A
C607        C608   1.409       .  A
C607        C610   1.452       .  S
C608        C611   1.452       .  S
C609        N616   1.157       .  T
C610        N615   1.157       .  T
C611        N613   1.157       .  T
C612        N614   1.157       .  T
C617        C618   1.412       .  A
C617        C622   1.417       .  A
C618        C619   1.409       .  A
C618        C623   1.453       .  S
C619        C620   1.420       .  A
C619        C626   1.452       .  S
C620        C621   1.414       .  A
C621        C622   1.411       .  A
C621        C624   1.450       .  S
C622        C625   1.452       .  S
C623        N630   1.157       .  T
C624        N629   1.157       .  T
C625        N627   1.157       .  T
C626        N628   1.157       .  T
C631        C632   1.410       .  A
C631        C636   1.412       .  A
C632        C633   1.408       .  A
C632        C637   1.453       .  S
C633        C634   1.414       .  A
C633        C640   1.449       .  S
C634        C635   1.416       .  A
C635        C636   1.418       .  A
C635        C638   1.450       .  S
C636        C639   1.449       .  S
C637        N644   1.157       .  T
C638        N643   1.157       .  T
C639        N641   1.157       .  T
C640        N642   1.156       .  T
C645        C646   1.421       .  A
C645        C650   1.417       .  A
C646        C647   1.416       .  A
C646        C651   1.452       .  S
C647        C648   1.414       .  A
C647        C654   1.452       .  S
C648        C649   1.420       .  A
C649        C650   1.409       .  A
C649        C652   1.453       .  S
C650        C653   1.452       .  S
C651        N658   1.157       .  T
C652        N657   1.157       .  T
C653        N655   1.157       .  T
C654        N656   1.158       .  T
C659        C660   1.422       .  A
C659        C664   1.414       .  A
C660        C661   1.411       .  A
C660        C665   1.451       .  S
C661        C662   1.416       .  A
C661        C668   1.453       .  S
C662        C663   1.419       .  A
C663        C664   1.412       .  A
C663        C666   1.453       .  S
C664        C667   1.447       .  S
C665        N672   1.157       .  T
C666        N671   1.157       .  T
C667        N669   1.155       .  T
C668        N670   1.158       .  T
C673        C674   1.415       .  A
C673        C678   1.415       .  A
C674        C675   1.413       .  A
C674        C679   1.453       .  S
C675        C676   1.417       .  A
C675        C682   1.449       .  S
C676        C677   1.417       .  A
C677        C678   1.417       .  A
C677        C680   1.450       .  S
C678        C681   1.451       .  S
C679        N686   1.157       .  T
C680        N685   1.157       .  T
C681        N683   1.157       .  T
C682        N684   1.156       .  T
C687        C688   1.411       .  A
C687        C692   1.411       .  A
C688        C689   1.413       .  A
C688        C693   1.451       .  S
C689        C690   1.413       .  A
C689        C696   1.450       .  S
C690        C691   1.412       .  A
C691        C692   1.408       .  A
C691        C694   1.451       .  S
C692        C695   1.450       .  S
C693        N700   1.157       .  T
C694        N699   1.158       .  T
C695        N697   1.157       .  T
C696        N698   1.157       .  T
C701        C702   1.416       .  A
C701        C706   1.417       .  A
C702        C703   1.414       .  A
C702        C707   1.449       .  S
C703        C704   1.413       .  A
C703        C710   1.452       .  S
C704        C705   1.414       .  A
C705        C706   1.417       .  A
C705        C708   1.451       .  S
C706        C709   1.449       .  S
C707        N714   1.156       .  T
C708        N713   1.157       .  T
C709        N711   1.157       .  T
C710        N712   1.157       .  T
C715        C716   1.413       .  A
C715        C720   1.412       .  A
C716        C717   1.410       .  A
C716        C721   1.449       .  S
C717        C718   1.410       .  A
C717        C724   1.451       .  S
C718        C719   1.411       .  A
C719        C720   1.411       .  A
C719        C722   1.449       .  S
C720        C723   1.451       .  S
C721        N728   1.157       .  T
C722        N727   1.157       .  T
C723        N725   1.157       .  T
C724        N726   1.157       .  T
C729        C730   1.415       .  A
C729        C734   1.409       .  A
C730        C731   1.411       .  A
C730        C735   1.453       .  S
C731        C732   1.411       .  A
C731        C738   1.450       .  S
C732        C733   1.418       .  A
C733        C734   1.413       .  A
C733        C736   1.452       .  S
C734        C737   1.450       .  S
C735        N742   1.157       .  T
C736        N741   1.157       .  T
C737        N739   1.157       .  T
C738        N740   1.157       .  T
C743        C744   1.410       .  A
C743        C748   1.416       .  A
C744        C745   1.412       .  A
C744        C749   1.450       .  S
C745        C746   1.417       .  A
C745        C752   1.451       .  S
C746        C747   1.413       .  A
C747        C748   1.407       .  A
C747        C750   1.453       .  S
C748        C751   1.453       .  S
C749        N756   1.157       .  T
C750        N755   1.157       .  T
C751        N753   1.157       .  T
C752        N754   1.157       .  T
C757        C758   1.412       .  A
C757        C762   1.415       .  A
C758        C759   1.412       .  A
C758        C763   1.451       .  S
C759        C760   1.415       .  A
C759        C766   1.451       .  S
C760        C761   1.411       .  A
C761        C762   1.411       .  A
C761        C764   1.450       .  S
C762        C765   1.452       .  S
C763        N770   1.157       .  T
C764        N769   1.157       .  T
C765        N767   1.157       .  T
C766        N768   1.157       .  T
C771        C772   1.413       .  A
C771        C776   1.412       .  A
C772        C773   1.409       .  A
C772        C777   1.450       .  S
C773        C774   1.410       .  A
C773        C780   1.451       .  S
C774        C775   1.413       .  A
C775        C776   1.415       .  A
C775        C778   1.450       .  S
C776        C779   1.450       .  S
C777        N784   1.157       .  T
C778        N783   1.157       .  T
C779        N781   1.157       .  T
C780        N782   1.157       .  T
C785        C786   1.413       .  A
C785        C790   1.417       .  A
C786        C787   1.411       .  A
C786        C791   1.452       .  S
C787        C788   1.417       .  A
C787        C794   1.449       .  S
C788        C789   1.415       .  A
C789        C790   1.408       .  A
C789        C792   1.452       .  S
C790        C793   1.451       .  S
C791        N798   1.158       .  T
C792        N797   1.157       .  T
C793        N795   1.157       .  T
C794        N796   1.156       .  T
C799        C800   1.414       .  A
C799        C804   1.415       .  A
C800        C801   1.409       .  A
C800        C805   1.449       .  S
C801        C802   1.410       .  A
C801        C808   1.452       .  S
C802        C803   1.408       .  A
C803        C804   1.408       .  A
C803        C806   1.450       .  S
C804        C807   1.449       .  S
C805        N812   1.157       .  T
C806        N811   1.157       .  T
C807        N809   1.157       .  T
C808        N810   1.157       .  T
C813        C814   1.406       .  A
C813        C818   1.416       .  A
C814        C815   1.403       .  A
C814        C819   1.447       .  S
C815        C816   1.411       .  A
C815        C822   1.449       .  S
C816        C817   1.410       .  A
C817        C818   1.412       .  A
C817        C820   1.450       .  S
C818        C821   1.451       .  S
C819        N826   1.157       .  T
C820        N825   1.157       .  T
C821        N823   1.157       .  T
C822        N824   1.157       .  T
C827        C828   1.410       .  A
C827        C832   1.418       .  A
C828        C829   1.410       .  A
C828        C833   1.453       .  S
C829        C830   1.421       .  A
C829        C836   1.448       .  S
C830        C831   1.416       .  A
C831        C832   1.411       .  A
C831        C834   1.453       .  S
C832        C835   1.453       .  S
C833        N840   1.157       .  T
C834        N839   1.157       .  T
C835        N837   1.158       .  T
C836        N838   1.156       .  T
C841        C842   1.412       .  A
C841        C846   1.411       .  A
C842        C843   1.405       .  A
C842        C847   1.453       .  S
C843        C844   1.414       .  A
C843        C850   1.453       .  S
C844        C845   1.414       .  A
C845        C846   1.412       .  A
C845        C848   1.451       .  S
C846        C849   1.451       .  S
C847        N854   1.157       .  T
C848        N853   1.157       .  T
C849        N851   1.157       .  T
C850        N852   1.157       .  T
C855        C856   1.416       .  A
C855        C860   1.427       .  A
C856        C857   1.401       .  A
C856        C861   1.452       .  S
C857        C858   1.423       .  A
C857        C864   1.453       .  S
C858        C859   1.418       .  A
C859        C860   1.418       .  A
C859        C862   1.450       .  S
C860        C863   1.451       .  S
C861        N868   1.158       .  T
C862        N867   1.158       .  T
C863        N865   1.158       .  T
C864        N866   1.158       .  T
C869        C870   1.411       .  A
C869        C874   1.413       .  A
C870        C871   1.410       .  A
C870        C875   1.450       .  S
C871        C872   1.413       .  A
C871        C878   1.452       .  S
C872        C873   1.411       .  A
C873        C874   1.415       .  A
C873        C876   1.449       .  S
C874        C877   1.450       .  S
C875        N882   1.157       .  T
C876        N881   1.157       .  T
C877        N879   1.157       .  T
C878        N880   1.157       .  T
C883        C884   1.412       .  A
C883        C888   1.417       .  A
C884        C885   1.411       .  A
C884        C889   1.452       .  S
C885        C886   1.418       .  A
C885        C892   1.452       .  S
C886        C887   1.414       .  A
C887        C888   1.412       .  A
C887        C890   1.452       .  S
C888        C891   1.452       .  S
C889        N896   1.157       .  T
C890        N895   1.157       .  T
C891        N893   1.157       .  T
C892        N894   1.157       .  T
C897        C898   1.410       .  A
C897        C902   1.410       .  A
C898        C899   1.407       .  A
C898        C903   1.451       .  S
C899        C900   1.409       .  A
C899        C906   1.447       .  S
C900        C901   1.413       .  A
C901        C902   1.412       .  A
C901        C904   1.451       .  S
C902        C905   1.450       .  S
C903        N910   1.157       .  T
C904        N909   1.157       .  T
C905        N907   1.157       .  T
C906        N908   1.156       .  T
C911        C912   1.412       .  A
C911        C916   1.413   1_565  A
C912        C913   1.413       .  A
C912        C917   1.450       .  S
C913        C914   1.413       .  A
C913        C920   1.450       .  S
C914        C915   1.410   1_565  A
C915        C916   1.409       .  A
C915        C918   1.451       .  S
C916        C919   1.451       .  S
C917        N924   1.157       .  T
C918        N923   1.157       .  T
C919        N921   1.157       .  T
C920        N922   1.157       .  T
C925        C926   1.417       .  A
C925        C930   1.412       .  A
C926        C927   1.407       .  A
C926        C931   1.453       .  S
C927        C928   1.415       .  A
C927        C934   1.453       .  S
C928        C929   1.419       .  A
C929        C930   1.412       .  A
C929        C932   1.452       .  S
C930        C933   1.451       .  S
C931        N938   1.157       .  T
C932        N937   1.157       .  T
C933        N935   1.158       .  T
C934        N936   1.157       .  T
C939        C940   1.412       .  A
C939        C944   1.415       .  A
C940        C941   1.408       .  A
C940        C945   1.453       .  S
C941        C942   1.417       .  A
C941        C948   1.453       .  S
C942        C943   1.413       .  A
C943        C944   1.409       .  A
C943        C946   1.450       .  S
C944        C947   1.452       .  S
C945        N952   1.157       .  T
C946        N951   1.157       .  T
C947        N949   1.157       .  T
C948        N950   1.157       .  T
C953        C954   1.412       .  A
C953        C958   1.410       .  A
C954        C955   1.408       .  A
C954        C959   1.450       .  S
C955        C956   1.409       .  A
C955        C962   1.451       .  S
C956        C957   1.413       .  A
C957        C958   1.410       .  A
C957        C960   1.451       .  S
C958        C961   1.450       .  S
C959        N966   1.157       .  T
C960        N965   1.157       .  T
C961        N963   1.157       .  T
C962        N964   1.157       .  T
C967        C968   1.420       .  A
C967        C972   1.412   1_655  A
C968        C969   1.413   1_655  A
C968        C973   1.450       .  S
C969        C970   1.410       .  A
C969        C976   1.452       .  S
C970        C971   1.419       .  A
C971        C972   1.409       .  A
C971        C974   1.454       .  S
C972        C975   1.451       .  S
C973        N980   1.157       .  T
C974        N979   1.158       .  T
C975        N977   1.157       .  T
C976        N978   1.157       .  T
C981        C982   1.416       .  A
C981        C986   1.413       .  A
C982        C983   1.410       .  A
C982        C987   1.452       .  S
C983        C984   1.412       .  A
C983        C990   1.452       .  S
C984        C985   1.416       .  A
C985        C986   1.409       .  A
C985        C988   1.453       .  S
C986        C989   1.452       .  S
C987        N994   1.157       .  T
C988        N993   1.157       .  T
C989        N991   1.157       .  T
C990        N992   1.157       .  T
C995        C996   1.417   1_655  A
C995       C1000   1.416   1_655  A
C996        C997   1.410       .  A
C996       C1001   1.452   1_455  S
C997        C998   1.411       .  A
C997       C1004   1.450       .  S
C998        C999   1.411       .  A
C999       C1000   1.409       .  A
C999       C1002   1.452       .  S
C1000      C1003   1.451       .  S
C1001      N1008   1.157       .  T
C1002      N1007   1.157       .  T
C1003      N1005   1.157       .  T
C1004      N1006   1.158       .  T
C1009      C1010   1.417       .  A
C1009      C1014   1.424       .  A
C1010      C1011   1.414       .  A
C1010      C1015   1.453       .  S
C1011      C1012   1.422       .  A
C1011      C1018   1.450       .  S
C1012      C1013   1.417       .  A
C1013      C1014   1.411       .  A
C1013      C1016   1.453       .  S
C1014      C1017   1.452       .  S
C1015      N1022   1.158       .  T
C1016      N1021   1.157       .  T
C1017      N1019   1.157       .  T
C1018      N1020   1.157       .  T
C1023      C1024   1.413       .  A
C1023      C1028   1.411       .  A
C1024      C1025   1.408       .  A
C1024      C1029   1.450       .  S
C1025      C1026   1.410       .  A
C1025      C1032   1.450       .  S
C1026      C1027   1.415       .  A
C1027      C1028   1.411       .  A
C1027      C1030   1.451       .  S
C1028      C1031   1.451       .  S
C1029      N1036   1.157       .  T
C1030      N1035   1.157       .  T
C1031      N1033   1.157       .  T
C1032      N1034   1.157       .  T
C1037      C1038   1.414       .  A
C1037      C1042   1.410       .  A
C1038      C1039   1.408       .  A
C1038      C1043   1.453       .  S
C1039      C1040   1.412       .  A
C1039      C1046   1.452       .  S
C1040      C1041   1.416       .  A
C1041      C1042   1.411       .  A
C1041      C1044   1.451       .  S
C1042      C1045   1.451       .  S
C1043      N1050   1.157       .  T
C1044      N1049   1.157       .  T
C1045      N1047   1.157       .  T
C1046      N1048   1.157       .  T
C1051      C1052   1.413       .  A
C1051      C1056   1.420       .  A
C1052      C1053   1.410       .  A
C1052      C1057   1.453       .  S
C1053      C1054   1.417       .  A
C1053      C1060   1.448       .  S
C1054      C1055   1.412       .  A
C1055      C1056   1.415       .  A
C1055      C1058   1.449       .  S
C1056      C1059   1.452       .  S
C1057      N1064   1.157       .  T
C1058      N1063   1.156       .  T
C1059      N1061   1.157       .  T
C1060      N1062   1.155       .  T
C1065      C1066   1.414       .  A
C1065      C1070   1.413       .  A
C1066      C1067   1.411   1_556  A
C1066      C1071   1.451       .  S
C1067      C1068   1.412       .  A
C1067      C1074   1.451       .  S
C1068      C1069   1.414       .  A
C1069      C1070   1.414   1_554  A
C1069      C1072   1.450       .  S
C1070      C1073   1.451       .  S
C1071      N1078   1.157       .  T
C1072      N1077   1.157       .  T
C1073      N1075   1.157       .  T
C1074      N1076   1.157       .  T
C1079      C1080   1.417       .  A
C1079      C1084   1.413       .  A
C1080      C1081   1.410       .  A
C1080      C1085   1.449       .  S
C1081      C1082   1.411       .  A
C1081      C1088   1.452       .  S
C1082      C1083   1.413       .  A
C1083      C1084   1.411       .  A
C1083      C1086   1.452       .  S
C1084      C1087   1.446       .  S
C1085      N1092   1.157       .  T
C1086      N1091   1.157       .  T
C1087      N1089   1.156       .  T
C1088      N1090   1.157       .  T
C1093      C1094   1.416   1_655  A
C1093      C1098   1.415   1_655  A
C1094      C1095   1.413       .  A
C1094      C1099   1.452   1_455  S
C1095      C1096   1.412       .  A
C1095      C1102   1.449       .  S
C1096      C1097   1.415       .  A
C1097      C1098   1.410       .  A
C1097      C1100   1.451       .  S
C1098      C1101   1.452       .  S
C1099      N1106   1.157       .  T
C1100      N1105   1.157       .  T
C1101      N1103   1.157       .  T
C1102      N1104   1.157       .  T
C1107      C1108   1.412       .  A
C1107      C1112   1.412       .  A
C1108      C1109   1.412   1_554  A
C1108      C1113   1.450       .  S
C1109      C1110   1.411       .  A
C1109      C1116   1.450       .  S
C1110      C1111   1.411       .  A
C1111      C1112   1.410   1_556  A
C1111      C1114   1.451       .  S
C1112      C1115   1.451       .  S
C1113      N1120   1.157       .  T
C1114      N1119   1.157       .  T
C1115      N1117   1.157       .  T
C1116      N1118   1.157       .  T
C1121      C1122   1.420       .  A
C1121      C1126   1.415       .  A
C1122      C1123   1.415       .  A
C1122      C1127   1.452       .  S
C1123      C1124   1.420       .  A
C1123      C1130   1.452       .  S
C1124      C1125   1.426       .  A
C1125      C1126   1.408       .  A
C1125      C1128   1.454       .  S
C1126      C1129   1.455       .  S
C1127      N1134   1.158       .  T
C1128      N1133   1.158       .  T
C1129      N1131   1.158       .  T
C1130      N1132   1.158       .  T
C1135      C1136   1.416       .  A
C1135      C1140   1.417       .  A
C1136      C1137   1.415       .  A
C1136      C1141   1.451   1_455  S
C1137      C1138   1.414       .  A
C1137      C1144   1.449       .  S
C1138      C1139   1.413       .  A
C1139      C1140   1.405       .  A
C1139      C1142   1.449       .  S
C1140      C1143   1.453       .  S
C1141      N1148   1.157       .  T
C1142      N1147   1.156       .  T
C1143      N1145   1.157       .  T
C1144      N1146   1.156       .  T
C1149      C1150   1.415   1_556  A
C1149      C1154   1.414       .  A
C1150      C1151   1.418   1_545  A
C1150      C1155   1.450       .  S
C1151      C1152   1.415   1_554  A
C1151      C1158   1.450       .  S
C1152      C1153   1.415       .  A
C1153      C1154   1.412   1_565  A
C1153      C1156   1.452       .  S
C1154      C1157   1.450       .  S
C1155      N1162   1.157       .  T
C1156      N1161   1.157       .  T
C1157      N1159   1.157       .  T
C1158      N1160   1.157       .  T
C1163      C1164   1.412       .  A
C1163      C1168   1.411       .  A
C1164      C1165   1.412       .  A
C1164      C1169   1.450       .  S
C1165      C1166   1.411       .  A
C1165      C1172   1.451       .  S
C1166      C1167   1.410       .  A
C1167      C1168   1.409       .  A
C1167      C1170   1.449       .  S
C1168      C1171   1.450       .  S
C1169      N1176   1.157       .  T
C1170      N1175   1.156       .  T
C1171      N1173   1.157       .  T
C1172      N1174   1.157       .  T
C1177      C1178   1.412       .  A
C1177      C1182   1.410       .  A
C1178      C1179   1.411       .  A
C1178      C1183   1.449       .  S
C1179      C1180   1.414       .  A
C1179      C1186   1.452       .  S
C1180      C1181   1.418       .  A
C1181      C1182   1.412       .  A
C1181      C1184   1.451       .  S
C1182      C1185   1.450       .  S
C1183      N1190   1.157       .  T
C1184      N1189   1.157       .  T
C1185      N1187   1.157       .  T
C1186      N1188   1.157       .  T
C1191      C1192   1.414       .  A
C1191      C1196   1.412   1_554  A
C1192      C1193   1.416   1_565  A
C1192      C1197   1.450       .  S
C1193      C1194   1.411       .  A
C1193      C1200   1.449       .  S
C1194      C1195   1.413   1_554  A
C1195      C1196   1.410   1_545  A
C1195      C1198   1.451       .  S
C1196      C1199   1.451       .  S
C1197      N1204   1.157       .  T
C1198      N1203   1.157       .  T
C1199      N1201   1.157       .  T
C1200      N1202   1.157       .  T
C1205      C1206   1.412       .  A
C1205      C1210   1.417       .  A
C1206      C1207   1.409       .  A
C1206      C1211   1.452       .  S
C1207      C1208   1.418       .  A
C1207      C1214   1.453       .  S
C1208      C1209   1.412       .  A
C1209      C1210   1.410       .  A
C1209      C1212   1.451       .  S
C1210      C1213   1.452       .  S
C1211      N1218   1.157       .  T
C1212      N1217   1.157       .  T
C1213      N1215   1.157       .  T
C1214      N1216   1.157       .  T
C1219      C1220   1.412       .  A
C1219      C1224   1.413       .  A
C1220      C1221   1.412       .  A
C1220      C1225   1.450       .  S
C1221      C1222   1.416       .  A
C1221      C1228   1.451       .  S
C1222      C1223   1.414       .  A
C1223      C1224   1.408       .  A
C1223      C1226   1.452       .  S
C1224      C1227   1.451       .  S
C1225      N1232   1.157       .  T
C1226      N1231   1.157       .  T
C1227      N1229   1.158       .  T
C1228      N1230   1.157       .  T
