geometry optimzed in LAMMPS
_audit_creation_date              2020-11-30 
_audit_creation_method            'lammps2cif' 
_symmetry_space_group_name_H-M    'P1' 
_symmetry_Int_Tables_number       1 
_symmetry_cell_setting            triclinic 
loop_ 
_symmetry_equiv_pos_as_xyz 
  x,y,z 
_cell_length_a                    40.47525389948349 
_cell_length_b                    40.74695423147319 
_cell_length_c                    40.4984545584256 
_cell_angle_alpha                 90.02851040031467 
_cell_angle_beta                  90.09438257749757 
_cell_angle_gamma                 90.10221751470887 
loop_ 
_atom_site_label 
_atom_site_type_symbol 
_atom_site_fract_x 
_atom_site_fract_y 
_atom_site_fract_z 
_atom_site_charge 
C1          C  0.77650914  0.05103680  0.77434994     0.04770
C2          C  0.79053516  0.03665046  0.74569138     0.04770
C3          C  0.77694563  0.00756879  0.73192994     0.04770
C4          C  0.75173992  0.99086444  0.74877599     0.04770
C5          C  0.73694935  0.00550340  0.77659984     0.04770
C6          C  0.74985160  0.03483862  0.79025592     0.04770
C7          C  0.74607579  0.78931147  0.03929386     0.04770
C8          C  0.76211296  0.76274243  0.02290665     0.04770
C9          C  0.74749320  0.74926152  0.99379886     0.04770
C10         C  0.71953306  0.76367699  0.97810154     0.04770
C11         C  0.70330472  0.79023981  0.99386302     0.04770
C12         C  0.71698441  0.80379736  0.02402931     0.04770
C13         C  0.02420093  0.76073892  0.75743734     0.04770
C14         C  0.00847341  0.77609236  0.72853619     0.04770
C15         C  0.97905482  0.76100886  0.71346735     0.04770
C16         C  0.96328594  0.73251860  0.72913551     0.04770
C17         C  0.97887417  0.71718960  0.75775098     0.04770
C18         C  0.00836422  0.73208386  0.77287169     0.04770
C19         C  0.99052704  0.28461569  0.21545983     0.04770
C20         C  0.95997983  0.27201615  0.20234426     0.04770
C21         C  0.94476015  0.24321328  0.21563324     0.04770
C22         C  0.96135754  0.22643636  0.24142671     0.04770
C23         C  0.99117839  0.23952186  0.25516064     0.04770
C24         C  0.00687913  0.26737169  0.24091142     0.04770
C25         C  0.97173774  0.98638313  0.01592014     0.04770
C26         C  0.95575137  0.01165037  0.99882291     0.04770
C27         C  0.96881629  0.02351086  0.96910857     0.04770
C28         C  0.99611114  0.00800123  0.95491870     0.04770
C29         C  0.01231193  0.98312908  0.97219794     0.04770
C30         C  0.99976988  0.97189468  0.00222964     0.04770
C31         C  0.76051066  0.52335063  0.25625663     0.04770
C32         C  0.77551422  0.50772204  0.22803037     0.04770
C33         C  0.75983435  0.47981190  0.21305733     0.04770
C34         C  0.73161440  0.46392669  0.22889499     0.04770
C35         C  0.71660966  0.47916780  0.25715455     0.04770
C36         C  0.73255113  0.50799440  0.27191927     0.04770
C37         C  0.51685903  0.48710810  0.97636332     0.04770
C38         C  0.50176720  0.51498365  0.96108853     0.04770
C39         C  0.47203516  0.52975291  0.97483939     0.04770
C40         C  0.45534463  0.51443268  0.00192170     0.04770
C41         C  0.47020599  0.48613592  0.01647495     0.04770
C42         C  0.50009438  0.47176392  0.00317143     0.04770
C43         C  0.48946382  0.97267058  0.52201619     0.04770
C44         C  0.51847247  0.95751090  0.50696290     0.04770
C45         C  0.53335782  0.97188124  0.47746909     0.04770
C46         C  0.51770048  0.99968771  0.46123736     0.04770
C47         C  0.48937892  0.01479186  0.47632742     0.04770
C48         C  0.47394202  0.00009341  0.50546058     0.04770
C49         C  0.46094601  0.19343461  0.76089577     0.04770
C50         C  0.48712340  0.21039143  0.77665130     0.04770
C51         C  0.50083855  0.23855503  0.76129864     0.04770
C52         C  0.48541059  0.25266155  0.73323528     0.04770
C53         C  0.45890680  0.23600029  0.71724227     0.04770
C54         C  0.44567367  0.20708723  0.73188925     0.04770
C55         C  0.49711676  0.73273372  0.22880971     0.04770
C56         C  0.48171328  0.70613472  0.24440467     0.04770
C57         C  0.49394803  0.69342824  0.27434474     0.04770
C58         C  0.52000095  0.70962947  0.29040344     0.04770
C59         C  0.53525878  0.73674332  0.27497998     0.04770
C60         C  0.52322692  0.74878700  0.24460241     0.04770
C61         C  0.20869011  0.25639146  0.96339594     0.04770
C62         C  0.22526116  0.22900436  0.94750700     0.04770
C63         C  0.25475786  0.21534725  0.96287145     0.04770
C64         C  0.26930646  0.22992469  0.99271657     0.04770
C65         C  0.25238607  0.25639037  0.00881772     0.04770
C66         C  0.22356466  0.27116494  0.99230797     0.04770
C67         C  0.23316077  0.51103702  0.73230328     0.04770
C68         C  0.24942859  0.49490690  0.70623173     0.04770
C69         C  0.27901061  0.50821755  0.69305012     0.04770
C70         C  0.29359549  0.53636476  0.70767348     0.04770
C71         C  0.27753593  0.55170081  0.73438913     0.04770
C72         C  0.24830543  0.53810181  0.74759584     0.04770
C73         C  0.02383129  0.45811975  0.50356126     0.04770
C74         C  0.99850266  0.47507012  0.52065106     0.04770
C75         C  0.98464899  0.50402427  0.50675586     0.04770
C76         C  0.99713114  0.51808697  0.47718033     0.04770
C77         C  0.02172379  0.50094488  0.45924415     0.04770
C78         C  0.03675434  0.47182762  0.47365698     0.04770
C79         C  0.21082161  0.72898851  0.46583765     0.04770
C80         C  0.22748223  0.74476644  0.49165109     0.04770
C81         C  0.25540468  0.73050077  0.50605802     0.04770
C82         C  0.26987771  0.70263393  0.49138909     0.04770
C83         C  0.25420450  0.68716918  0.46404824     0.04770
C84         C  0.22499951  0.70106787  0.45093672     0.04770
C85         C  0.76167232  0.22050050  0.50786299     0.04770
C86         C  0.73354148  0.23579203  0.49314729     0.04770
C87         C  0.71860568  0.26409234  0.50743498     0.04770
C88         C  0.73359893  0.27955654  0.53486399     0.04770
C89         C  0.76156981  0.26433027  0.55001977     0.04770
C90         C  0.77674215  0.23546193  0.53575704     0.04770
C91         C  0.64347651  0.97732984  0.79955076     0.05610
C92         C  0.62869722  0.95415040  0.77883820    -0.10540
C93         C  0.59649143  0.94327476  0.78483972     0.03110
C94         C  0.57874699  0.95683671  0.81080841    -0.09060
C95         C  0.59380508  0.97869201  0.83244062     0.05600
C96         C  0.62577288  0.99013256  0.82619245    -0.08480
H97         H  0.64257913  0.94384978  0.75874738     0.11200
H98         H  0.55404408  0.94844176  0.81629440     0.08730
H99         H  0.63715166  0.00760744  0.84273133     0.08570
C100        C  0.56728471  0.81342839  0.90982440     0.05610
C101        C  0.59934280  0.80401618  0.92150361    -0.10540
C102        C  0.61148242  0.81498680  0.95272235     0.03110
C103        C  0.59097545  0.83492251  0.97195040    -0.09060
C104        C  0.55945933  0.84428798  0.96080353     0.05600
C105        C  0.54810958  0.83350259  0.92998791    -0.08480
H106        H  0.61480354  0.78866561  0.90628223     0.11200
H107        H  0.60000972  0.84404228  0.99546375     0.08730
H108        H  0.52485032  0.84214657  0.92090931     0.08570
C109        C  0.10776716  0.96300215  0.95450800     0.05610
C110        C  0.12423922  0.93985142  0.97383755    -0.10540
C111        C  0.15726039  0.93261286  0.96700110     0.03110
C112        C  0.17410379  0.94975825  0.94255276    -0.09060
C113        C  0.15705910  0.97163298  0.92261591     0.05600
C114        C  0.12417820  0.97928288  0.92914167    -0.08480
H115        H  0.11073660  0.92557295  0.99196802     0.11200
H116        H  0.19930878  0.94314017  0.93640413     0.08730
H117        H  0.11068839  0.99556182  0.91278265     0.08570
C118        C  0.16740295  0.79291172  0.83186896     0.05610
C119        C  0.13578555  0.78110090  0.82048050    -0.10540
C120        C  0.11931911  0.79509211  0.79239660     0.03110
C121        C  0.13640057  0.82118802  0.77598273    -0.09060
C122        C  0.16796183  0.83304552  0.78715379     0.05600
C123        C  0.18199984  0.81897297  0.81515504    -0.08480
H124        H  0.12388443  0.76129479  0.83371629     0.11200
H125        H  0.12497385  0.83258650  0.75471010     0.08730
H126        H  0.20403086  0.82961812  0.82512175     0.08570
C127        C  0.77750994  0.65955004  0.96158465     0.05610
C128        C  0.75984641  0.64403311  0.93612512    -0.10540
C129        C  0.77397826  0.61713026  0.92005099     0.03110
C130        C  0.80611062  0.60829223  0.92786560    -0.09060
C131        C  0.82039751  0.61853976  0.95719316     0.05600
C132        C  0.80656340  0.64525945  0.97385995    -0.08480
H133        H  0.73585783  0.65306323  0.92862747     0.11200
H134        H  0.81973291  0.59251533  0.91138522     0.08730
H135        H  0.81837546  0.65501308  0.99569948     0.08570
C136        C  0.89870775  0.57914052  0.79196110     0.05610
C137        C  0.91125997  0.60928442  0.77818270    -0.10540
C138        C  0.94028735  0.62502354  0.79140289     0.03110
C139        C  0.95701532  0.60834651  0.81732037    -0.09060
C140        C  0.94454167  0.57847184  0.83061469     0.05600
C141        C  0.91467651  0.56628533  0.81917562    -0.08480
H142        H  0.89833505  0.62054284  0.75777317     0.11200
H143        H  0.97935083  0.61890575  0.82760912     0.08730
H144        H  0.90261702  0.54732275  0.83305629     0.08570
C145        C  0.95119320  0.11873465  0.95073426     0.05610
C146        C  0.92735999  0.13495865  0.96957601    -0.10540
C147        C  0.92339866  0.16892056  0.96631097     0.03110
C148        C  0.94422663  0.18666546  0.94550107    -0.09060
C149        C  0.96738055  0.17032964  0.92608915     0.05600
C150        C  0.97153167  0.13640465  0.92929671    -0.08480
H151        H  0.91071165  0.12100193  0.98516736     0.11200
H152        H  0.94066658  0.21286103  0.94246076     0.08730
H153        H  0.98897353  0.12356281  0.91364316     0.08570
C154        C  0.84155555  0.19404382  0.79338038     0.05610
C155        C  0.83319963  0.16126019  0.78476552    -0.10540
C156        C  0.80674054  0.14488697  0.80029136     0.03110
C157        C  0.78871939  0.16149211  0.82446156    -0.09060
C158        C  0.79667687  0.19393476  0.83343665     0.05600
C159        C  0.82281733  0.21011627  0.81751975    -0.08480
H160        H  0.84744154  0.14840723  0.76622194     0.11200
H161        H  0.76863874  0.14881412  0.83678476     0.08730
H162        H  0.82879952  0.23497138  0.82411430     0.08570
C163        C  0.77085846  0.93121106  0.59539086     0.05610
C164        C  0.76981623  0.94221980  0.62851748    -0.10540
C165        C  0.78260527  0.97346610  0.63699249     0.03110
C166        C  0.79663097  0.99287547  0.61233437    -0.09060
C167        C  0.79784667  0.98137334  0.57983779     0.05600
C168        C  0.78174375  0.95256877  0.57101904    -0.08480
H169        H  0.76083344  0.92622696  0.64753423     0.11200
H170        H  0.80989519  0.01507084  0.61903774     0.08730
H171        H  0.78321293  0.94420587  0.54561301     0.08570
C172        C  0.90757401  0.78970362  0.57068827     0.05610
C173        C  0.92012927  0.77794039  0.60151394    -0.10540
C174        C  0.94454138  0.79584639  0.61960833     0.03110
C175        C  0.95671783  0.82536138  0.60465640    -0.09060
C176        C  0.94373192  0.83714683  0.57385653     0.05600
C177        C  0.91828856  0.81983449  0.55911887    -0.08480
H178        H  0.91043967  0.75530717  0.61165774     0.11200
H179        H  0.97572538  0.83936984  0.61713771     0.08730
H180        H  0.90500869  0.83101559  0.53919396     0.08570
C181        C  0.95657534  0.96647797  0.11274353     0.05610
C182        C  0.93625783  0.98700146  0.13132619    -0.10540
C183        C  0.93162855  0.98071890  0.16487669     0.03110
C184        C  0.94894701  0.95552657  0.18027859    -0.09060
C185        C  0.96757027  0.93371236  0.16152403     0.05600
C186        C  0.97238972  0.93974683  0.12775758    -0.08480
H187        H  0.92207339  0.00610590  0.11921667     0.11200
H188        H  0.94488637  0.95080346  0.20631046     0.08730
H189        H  0.98668206  0.92277888  0.11298784     0.08570
C190        C  0.82337403  0.80217030  0.18077697     0.05610
C191        C  0.81001121  0.82929896  0.19657975    -0.10540
C192        C  0.78462741  0.84758032  0.18268621     0.03110
C193        C  0.77200173  0.83875579  0.15131177    -0.09060
C194        C  0.78482884  0.81186657  0.13363856     0.05600
C195        C  0.81080665  0.79345557  0.14879629    -0.08480
H196        H  0.82089886  0.83744507  0.21917946     0.11200
H197        H  0.75262022  0.85342123  0.14022539     0.08730
H198        H  0.82145752  0.77290165  0.13569305     0.08570
C199        C  0.34807741  0.02134893  0.20359607     0.05610
C200        C  0.36494396  0.04313730  0.22472596    -0.10540
C201        C  0.39825927  0.05091391  0.21876288     0.03110
C202        C  0.41569303  0.03427907  0.19455032    -0.09060
C203        C  0.39876279  0.01885268  0.16928799     0.05600
C204        C  0.36487905  0.01047793  0.17461857    -0.08480
H205        H  0.35186460  0.05522017  0.24458093     0.11200
H206        H  0.44203026  0.03841019  0.19263063     0.08730
H207        H  0.35167779  0.99657396  0.15616211     0.08570
C208        C  0.41429276  0.21298085  0.07382979     0.05610
C209        C  0.43228457  0.19819481  0.04874428    -0.10540
C210        C  0.41651793  0.18644796  0.02053755     0.03110
C211        C  0.38464740  0.19615347  0.01202533    -0.09060
C212        C  0.36496870  0.21328067  0.03418234     0.05600
C213        C  0.37990632  0.22132691  0.06607076    -0.08480
H214        H  0.45729836  0.19012348  0.05306508     0.11200
H215        H  0.37356351  0.18624767  0.98969241     0.08730
H216        H  0.36510286  0.23305784  0.08465999     0.08570
C217        C  0.18544154  0.40048290  0.05691408     0.05610
C218        C  0.19478002  0.37143664  0.04265889    -0.10540
C219        C  0.18159215  0.36197945  0.01280716     0.03110
C220        C  0.15810750  0.38365015  0.99682456    -0.09060
C221        C  0.14783450  0.41379773  0.01296601     0.05600
C222        C  0.16129893  0.42033039  0.04358219    -0.08480
H223        H  0.21309472  0.35624252  0.05499895     0.11200
H224        H  0.14815687  0.37739489  0.97286415     0.08730
H225        H  0.15279370  0.44068894  0.05829541     0.08570
C226        C  0.07275736  0.42129251  0.19972240     0.05610
C227        C  0.06311712  0.38805060  0.20616929    -0.10540
C228        C  0.03056767  0.37690102  0.19835923     0.03110
C229        C  0.00905262  0.39869098  0.18294049    -0.09060
C230        C  0.01929703  0.43057707  0.17573557     0.05600
C231        C  0.04886584  0.44282559  0.18805815    -0.08480
H232        H  0.08092935  0.37098584  0.21593200     0.11200
H233        H  0.98585649  0.38969356  0.17290900     0.08730
H234        H  0.05487577  0.46812180  0.18275943     0.08570
C235        C  0.05047261  0.22482802  0.39839970     0.05610
C236        C  0.04267275  0.23211980  0.36541189    -0.10540
C237        C  0.01786476  0.21412870  0.34910426     0.03110
C238        C  0.00186629  0.18842007  0.36579736    -0.09060
C239        C  0.01033203  0.18136211  0.39860633     0.05600
C240        C  0.03182706  0.20180291  0.41551469    -0.08480
H241        H  0.05698094  0.25022275  0.35209573     0.11200
H242        H  0.98426513  0.17305678  0.35302186     0.08730
H243        H  0.03730390  0.19676162  0.44125363     0.08570
C244        C  0.18722348  0.07489958  0.41678250     0.05610
C245        C  0.15993650  0.06102391  0.43186527    -0.10540
C246        C  0.14543789  0.03226989  0.42065506     0.03110
C247        C  0.15619785  0.01839430  0.39026188    -0.09060
C248        C  0.18241272  0.03263381  0.37187592     0.05600
C249        C  0.19842443  0.06079407  0.38617847    -0.08480
H250        H  0.14832200  0.07405890  0.45167517     0.11200
H251        H  0.14365969  0.99692476  0.38059632     0.08730
H252        H  0.21905192  0.07186251  0.37345639     0.08570
C253        C  0.42181420  0.67811642  0.50957390     0.05610
C254        C  0.38867028  0.67930608  0.50010474    -0.10540
C255        C  0.36612689  0.69720761  0.51880639     0.03110
C256        C  0.37709092  0.71473832  0.54677137    -0.09060
C257        C  0.41063359  0.71347452  0.55612783     0.05600
C258        C  0.43301251  0.69661713  0.53626146    -0.08480
H259        H  0.37991226  0.66391105  0.48003131     0.11200
H260        H  0.35952533  0.72779071  0.56195045     0.08730
H261        H  0.45878933  0.69504135  0.54340259     0.08570
C262        C  0.43788204  0.55411530  0.65390644     0.05610
C263        C  0.40499378  0.54745658  0.66231166    -0.10540
C264        C  0.38861345  0.56615521  0.68587373     0.03110
C265        C  0.40564830  0.59205685  0.70160442    -0.09060
C266        C  0.43911490  0.59912526  0.69362715     0.05600
C267        C  0.45497658  0.57965071  0.66992150    -0.08480
H268        H  0.39170577  0.52783217  0.64990297     0.11200
H269        H  0.39282700  0.60682223  0.71974330     0.08730
H270        H  0.48033615  0.58456610  0.66380822     0.08570
C271        C  0.62762102  0.29394224  0.47084841     0.05610
C272        C  0.60858326  0.32019965  0.48340367    -0.10540
C273        C  0.57893205  0.32971681  0.46739130     0.03110
C274        C  0.57013779  0.31419265  0.43823543    -0.09060
C275        C  0.58697742  0.28665203  0.42681917     0.05600
C276        C  0.61567106  0.27638768  0.44343881    -0.08480
H277        H  0.61706426  0.33349070  0.50498338     0.11200
H278        H  0.55104649  0.32499520  0.42351038     0.08730
H279        H  0.62905731  0.25520605  0.43467014     0.08570
C280        C  0.57359836  0.44990070  0.31126953     0.05610
C281        C  0.60474959  0.45878531  0.29994742    -0.10540
C282        C  0.62152901  0.43938737  0.27735382     0.03110
C283        C  0.60449987  0.41011539  0.26540339    -0.09060
C284        C  0.57103877  0.40184584  0.27629777     0.05600
C285        C  0.55632147  0.42337304  0.29836582    -0.08480
H286        H  0.61726583  0.47954298  0.31127905     0.11200
H287        H  0.61703481  0.39389867  0.24853012     0.08730
H288        H  0.53233922  0.41822751  0.30872263     0.08570
C289        C  0.66571980  0.42141399  0.54884731     0.05610
C290        C  0.67476381  0.38822705  0.54358091    -0.10540
C291        C  0.70180955  0.37429719  0.56069451     0.03110
C292        C  0.71755607  0.39368747  0.58525550    -0.09060
C293        C  0.70833029  0.42704472  0.59014346     0.05600
C294        C  0.68542390  0.44098133  0.56888719    -0.08480
H295        H  0.66048061  0.37319182  0.52671496     0.11200
H296        H  0.73635634  0.38277293  0.60081144     0.08730
H297        H  0.68151205  0.46707186  0.56931069     0.08570
C298        C  0.51340652  0.34896745  0.71907462     0.05610
C299        C  0.49700996  0.36812491  0.69554162    -0.10540
C300        C  0.50620451  0.40091532  0.69097542     0.03110
C301        C  0.53018310  0.41514377  0.71084873    -0.09060
C302        C  0.55034159  0.39557676  0.73015490     0.05600
C303        C  0.54013631  0.36302403  0.73694413    -0.08480
H304        H  0.47869125  0.35705078  0.67942448     0.11200
H305        H  0.53652736  0.44077222  0.70718048     0.08730
H306        H  0.55316141  0.34885798  0.75517430     0.08570
C307        C  0.31372413  0.54778627  0.44656215     0.05610
C308        C  0.30172507  0.57894690  0.45397699    -0.10540
C309        C  0.28036611  0.59474639  0.43231277     0.03110
C310        C  0.26992869  0.57812141  0.40339352    -0.09060
C311        C  0.28130353  0.54577386  0.39633012     0.05600
C312        C  0.30289427  0.53086086  0.41858317    -0.08480
H313        H  0.31124440  0.59201336  0.47534873     0.11200
H314        H  0.25372035  0.59045298  0.38620196     0.08730
H315        H  0.31321672  0.50694485  0.41358378     0.08570
C316        C  0.46297486  0.55417670  0.34107302     0.05610
C317        C  0.47746827  0.58408196  0.33050087    -0.10540
C318        C  0.45858456  0.60727774  0.31284920     0.03110
C319        C  0.42547883  0.60093951  0.30624543    -0.09060
C320        C  0.41142854  0.57133212  0.31596351     0.05600
C321        C  0.42986865  0.54810211  0.33321741    -0.08480
H322        H  0.50300642  0.58951571  0.33645335     0.11200
H323        H  0.41088167  0.61854705  0.29242972     0.08730
H324        H  0.41759876  0.52588599  0.34104286     0.08570
C325        C  0.53128234  0.65109298  0.43608533     0.05610
C326        C  0.52383516  0.65734727  0.40252625    -0.10540
C327        C  0.53274815  0.68743380  0.38802114     0.03110
C328        C  0.54862881  0.71121017  0.40696656    -0.09060
C329        C  0.55706065  0.70455437  0.43968778     0.05600
C330        C  0.54637480  0.67567056  0.45486142    -0.08480
H331        H  0.51285529  0.63829873  0.38734300     0.11200
H332        H  0.55822604  0.73310957  0.39508914     0.08730
H333        H  0.55363981  0.67120813  0.48016300     0.08570
C334        C  0.67479342  0.53884915  0.40898665     0.05610
C335        C  0.68764041  0.56472589  0.42739560    -0.10540
C336        C  0.71472488  0.58230381  0.41636785     0.03110
C337        C  0.72846194  0.57275558  0.38483627    -0.09060
C338        C  0.71320358  0.54744169  0.36501735     0.05600
C339        C  0.68643406  0.53108985  0.37799265    -0.08480
H340        H  0.67538682  0.57144784  0.44999286     0.11200
H341        H  0.75052703  0.58441645  0.37646818     0.08730
H342        H  0.67455684  0.51158404  0.36397429     0.08570
C343        C  0.42529647  0.31688398  0.59116998     0.05610
C344        C  0.40657871  0.30096199  0.56706156    -0.10540
C345        C  0.39612063  0.26868262  0.57136384     0.03110
C346        C  0.40509952  0.25235522  0.60144981    -0.09060
C347        C  0.42390040  0.26894367  0.62630129     0.05600
C348        C  0.43340096  0.30131739  0.62067124    -0.08480
H349        H  0.39944375  0.31465869  0.54537416     0.11200
H350        H  0.39732081  0.22728115  0.60549150     0.08730
H351        H  0.44796610  0.31432291  0.63902769     0.08570
C352        C  0.33588230  0.46394135  0.55341744     0.05610
C353        C  0.32952039  0.47949187  0.58379017    -0.10540
C354        C  0.30453999  0.46781026  0.60457788     0.03110
C355        C  0.28570684  0.44057453  0.59499249    -0.09060
C356        C  0.29232958  0.42474865  0.56500852     0.05600
C357        C  0.31638759  0.43732108  0.54375649    -0.08480
H358        H  0.34479215  0.49988725  0.59183885     0.11200
H359        H  0.26695747  0.43090348  0.61139805     0.08730
H360        H  0.32036163  0.42551644  0.52019531     0.08570
C361        C  0.16819043  0.38374648  0.44820166     0.05610
C362        C  0.14277056  0.40298174  0.46346430    -0.10540
C363        C  0.11763867  0.41796599  0.44363599     0.03110
C364        C  0.11856222  0.41366046  0.40960546    -0.09060
C365        C  0.14350271  0.39523511  0.39521185     0.05600
C366        C  0.16634306  0.37857243  0.41431195    -0.08480
H367        H  0.14277381  0.40647212  0.48996669     0.11200
H368        H  0.10152757  0.42711051  0.39392991     0.08730
H369        H  0.18454310  0.36378412  0.40163676     0.08570
C370        C  0.14123137  0.29320950  0.31495530     0.05610
C371        C  0.16035150  0.31785886  0.30081027    -0.10540
C372        C  0.15290345  0.33057581  0.26999830     0.03110
C373        C  0.12255156  0.32067725  0.25472681    -0.09060
C374        C  0.10109949  0.29771848  0.27058542     0.05600
C375        C  0.11146387  0.28362467  0.30028819    -0.08480
H376        H  0.18071715  0.32795281  0.31467498     0.11200
H377        H  0.11572928  0.33081093  0.23106916     0.08730
H378        H  0.09626519  0.26519924  0.31213779     0.08570
C379        C  0.39349829  0.44817710  0.15165079     0.05610
C380        C  0.40407923  0.46551132  0.12297278    -0.10540
C381        C  0.43115731  0.45358450  0.10409251     0.03110
C382        C  0.44861376  0.42649089  0.11530468    -0.09060
C383        C  0.43828120  0.41012839  0.14342019     0.05600
C384        C  0.40954886  0.41937408  0.15962161    -0.08480
H385        H  0.39137796  0.48751328  0.11546129     0.11200
H386        H  0.47011342  0.41782296  0.10192094     0.08730
H387        H  0.39939853  0.40334604  0.17816596     0.08570
C388        C  0.30252328  0.27961915  0.09846688     0.05610
C389        C  0.32028228  0.26061844  0.12366554    -0.10540
C390        C  0.33850565  0.27687127  0.15058901     0.03110
C391        C  0.33840958  0.31083461  0.15040558    -0.09060
C392        C  0.31977258  0.32837618  0.12781925     0.05600
C393        C  0.30324922  0.31349273  0.10176219    -0.08480
H394        H  0.31990457  0.23410337  0.12245263     0.11200
H395        H  0.35126255  0.32455126  0.16940544     0.08730
H396        H  0.28851442  0.32862643  0.08531238     0.08570
C397        C  0.31728643  0.13639229  0.29479183     0.05610
C398        C  0.30534380  0.15445739  0.32130592    -0.10540
C399        C  0.27487187  0.14794885  0.33517961     0.03110
C400        C  0.25795133  0.11862640  0.32476083    -0.09060
C401        C  0.27184916  0.09779688  0.29975595     0.05600
C402        C  0.30112235  0.10786877  0.28453124    -0.08480
H403        H  0.32071627  0.17343564  0.33175139     0.11200
H404        H  0.23467268  0.11211604  0.33602381     0.08730
H405        H  0.31148814  0.09340230  0.26464737     0.08570
C406        C  0.45738052  0.15291707  0.39424208     0.05610
C407        C  0.47535874  0.12547565  0.40849120    -0.10540
C408        C  0.45860811  0.10141141  0.42894803     0.03110
C409        C  0.42504200  0.10561195  0.43457920    -0.09060
C410        C  0.40834961  0.13199042  0.42096726     0.05600
C411        C  0.42375915  0.15427476  0.40021308    -0.08480
H412        H  0.50153799  0.12298814  0.40381564     0.11200
H413        H  0.41191741  0.08902274  0.45095983     0.08730
H414        H  0.40870245  0.17328315  0.38925490     0.08570
C415        C  0.22386421  0.39898780  0.69255017     0.05610
C416        C  0.19863027  0.38578552  0.71242054    -0.10540
C417        C  0.19193120  0.35197116  0.71125118     0.03110
C418        C  0.21231334  0.33147701  0.69301364    -0.09060
C419        C  0.23381421  0.34470597  0.66992716     0.05600
C420        C  0.24095214  0.37841287  0.67060325    -0.08480
H421        H  0.18340316  0.40177710  0.72732520     0.11200
H422        H  0.20791621  0.30520412  0.69319954     0.08730
H423        H  0.25828132  0.38872309  0.65308831     0.08570
C424        C  0.05333885  0.36472629  0.53588200     0.05610
C425        C  0.07879218  0.34666420  0.52005945    -0.10540
C426        C  0.08908471  0.31577383  0.53272316     0.03110
C427        C  0.07468578  0.30416443  0.56138445    -0.09060
C428        C  0.04832015  0.31987505  0.57621706     0.05600
C429        C  0.03776766  0.35057144  0.56370707    -0.08480
H430        H  0.09108650  0.35693353  0.49868360     0.11200
H431        H  0.08598277  0.28390685  0.57387091     0.08730
H432        H  0.01825099  0.36383248  0.57618555     0.08570
C433        C  0.37645957  0.01999553  0.53614290     0.05610
C434        C  0.35778081  0.03791314  0.51325554    -0.10540
C435        C  0.32403194  0.04353590  0.51861642     0.03110
C436        C  0.30768666  0.02863403  0.54482698    -0.09060
C437        C  0.32541839  0.01607748  0.57116653     0.05600
C438        C  0.36015822  0.01006545  0.56611191    -0.08480
H439        H  0.36992188  0.04929223  0.49232269     0.11200
H440        H  0.28121516  0.03155396  0.54654423     0.08730
H441        H  0.37420544  0.99850568  0.58537503     0.08570
C442        C  0.29481737  0.18581965  0.71064406     0.05610
C443        C  0.32787034  0.18892563  0.72006890    -0.10540
C444        C  0.35145781  0.19836874  0.69695873     0.03110
C445        C  0.34080628  0.20657874  0.66455636    -0.09060
C446        C  0.30648380  0.20614390  0.65641476     0.05600
C447        C  0.28375345  0.19951198  0.68131875    -0.08480
H448        H  0.33593150  0.17839019  0.74333811     0.11200
H449        H  0.35890644  0.21173606  0.64568877     0.08730
H450        H  0.25762449  0.19803446  0.67591290     0.08570
C451        C  0.17359491  0.69278579  0.30660434     0.05610
C452        C  0.18322190  0.69959580  0.33897402    -0.10540
C453        C  0.20177087  0.67673476  0.35650510     0.03110
C454        C  0.21149114  0.64744583  0.34122046    -0.09060
C455        C  0.20227938  0.64093421  0.30830236     0.05600
C456        C  0.18479675  0.66464158  0.29064364    -0.08480
H457        H  0.17342166  0.72098119  0.35155098     0.11200
H458        H  0.22470009  0.62917365  0.35536123     0.08730
H459        H  0.17684230  0.66024496  0.26553113     0.08570
C460        C  0.03366930  0.54609893  0.36790898     0.05610
C461        C  0.06516212  0.54053172  0.35616182    -0.10540
C462        C  0.07526821  0.55429466  0.32672534     0.03110
C463        C  0.05558384  0.57474612  0.30838469    -0.09060
C464        C  0.02362156  0.58177180  0.31831645     0.05600
C465        C  0.01216324  0.56717593  0.34889893    -0.08480
H466        H  0.08180755  0.52423033  0.36935377     0.11200
H467        H  0.06625793  0.58528809  0.28638332     0.08730
H468        H  0.98739192  0.57206833  0.35752176     0.08570
C469        C  0.53758594  0.08094282  0.32027928     0.05610
C470        C  0.52575112  0.06754240  0.35123301    -0.10540
C471        C  0.54270548  0.04069963  0.36738516     0.03110
C472        C  0.57012289  0.02726810  0.35080045    -0.09060
C473        C  0.58158924  0.04066174  0.32078087     0.05600
C474        C  0.56641161  0.06811250  0.30757960    -0.08480
H475        H  0.50413677  0.07807971  0.36269667     0.11200
H476        H  0.58331744  0.00689507  0.36183078     0.08730
H477        H  0.57866845  0.08126387  0.28821620     0.08570
C478        C  0.70977540  0.21855284  0.39703867     0.05610
C479        C  0.68340393  0.23468704  0.38120943    -0.10540
C480        C  0.67731585  0.22875109  0.34756015     0.03110
C481        C  0.69958526  0.21038994  0.32941339    -0.09060
C482        C  0.72263563  0.19125811  0.34573550     0.05600
C483        C  0.72903110  0.19623562  0.37927364    -0.08480
H484        H  0.66678307  0.24999190  0.39514326     0.11200
H485        H  0.69520763  0.20632929  0.30326797     0.08730
H486        H  0.74701195  0.18106117  0.39195179     0.08570
C487        C  0.31688436  0.54601954  0.08086411     0.05610
C488        C  0.34700529  0.53326496  0.06740731    -0.10540
C489        C  0.36238625  0.54779940  0.03917319     0.03110
C490        C  0.34541741  0.57428429  0.02391665    -0.09060
C491        C  0.31523217  0.58660391  0.03704140     0.05600
C492        C  0.30292076  0.57331763  0.06607133    -0.08480
H493        H  0.35851926  0.51240986  0.07900971     0.11200
H494        H  0.35588259  0.58562572  0.00215700     0.08730
H495        H  0.28304497  0.58564338  0.07836854     0.08570
C496        C  0.38827078  0.69506441  0.21378132     0.05610
C497        C  0.36945484  0.67192506  0.23032201    -0.10540
C498        C  0.33908864  0.66281130  0.21758525     0.03110
C499        C  0.32752866  0.67727041  0.18881718    -0.09060
C500        C  0.34439991  0.70294302  0.17387905     0.05600
C501        C  0.37551203  0.71190865  0.18633692    -0.08480
H502        H  0.37971897  0.65888338  0.25133174     0.11200
H503        H  0.30710882  0.66613528  0.17611997     0.08730
H504        H  0.39014242  0.73043257  0.17403188     0.08570
C505        C  0.53242776  0.37776115  0.02613924     0.05610
C506        C  0.51172458  0.35981307  0.04703618    -0.10540
C507        C  0.51869011  0.32694483  0.05396963     0.03110
C508        C  0.54419106  0.31078162  0.03788088    -0.09060
C509        C  0.56801233  0.32847961  0.02095810     0.05600
C510        C  0.56146749  0.36222132  0.01383745    -0.08480
H511        H  0.49141934  0.37191145  0.05950280     0.11200
H512        H  0.54720869  0.28481782  0.04232132     0.08730
H513        H  0.57898379  0.37624703  0.99959892     0.08570
C514        C  0.65517175  0.35344876  0.15493347     0.05610
C515        C  0.63727648  0.33110338  0.17332204    -0.10540
C516        C  0.64257786  0.32769812  0.20691457     0.03110
C517        C  0.66298792  0.35258301  0.22294275    -0.09060
C518        C  0.67871166  0.37842776  0.20369572     0.05600
C519        C  0.67429979  0.37768999  0.16966703    -0.08480
H520        H  0.62178835  0.31380805  0.16006790     0.11200
H521        H  0.66656282  0.35178896  0.24941043     0.08730
H522        H  0.68817606  0.39444391  0.15409503     0.08570
C523        C  0.19665768  0.15254303  0.80448593     0.05610
C524        C  0.20852193  0.16271142  0.83659798    -0.10540
C525        C  0.19624405  0.19164357  0.85291703     0.03110
C526        C  0.17212108  0.20986164  0.83588861    -0.09060
C527        C  0.16030906  0.20009901  0.80445992     0.05600
C528        C  0.17269447  0.17179457  0.78952486    -0.08480
H529        H  0.22670233  0.14794433  0.84886860     0.11200
H530        H  0.16178080  0.23146452  0.84756641     0.08730
H531        H  0.16224568  0.16350670  0.76672704     0.08570
C532        C  0.01154101  0.06432774  0.81338635     0.05610
C533        C  0.00277096  0.05467673  0.84519726    -0.10540
C534        C  0.01633073  0.02622016  0.85859705     0.03110
C535        C  0.03810270  0.00703865  0.83999734    -0.09060
C536        C  0.04660871  0.01688746  0.80794121     0.05600
C537        C  0.03187272  0.04465186  0.79416349    -0.08480
H538        H  0.98759991  0.07059795  0.86036271     0.11200
H539        H  0.05042124  0.98628125  0.85133275     0.08730
H540        H  0.03875531  0.05278974  0.76962318     0.08570
C541        C  0.27748970  0.93567199  0.12341215     0.05610
C542        C  0.26382347  0.90895488  0.10512410    -0.10540
C543        C  0.27833423  0.89822868  0.07484592     0.03110
C544        C  0.30728735  0.91280597  0.06426429    -0.09060
C545        C  0.31969780  0.94101699  0.07851369     0.05600
C546        C  0.30506712  0.95232935  0.10874165    -0.08480
H547        H  0.24234962  0.89622696  0.11461817     0.11200
H548        H  0.32135202  0.90094475  0.04526637     0.08730
H549        H  0.31524286  0.97365642  0.12085728     0.08570
C550        C  0.46677262  0.76412537  0.13743211     0.05610
C551        C  0.44011600  0.74940328  0.12067383    -0.10540
C552        C  0.42896290  0.76295030  0.09079220     0.03110
C553        C  0.44652923  0.78827858  0.07629637    -0.09060
C554        C  0.46986460  0.80540327  0.09453958     0.05600
C555        C  0.48130487  0.79263729  0.12453185    -0.08480
H556        H  0.42723416  0.72876436  0.13146343     0.11200
H557        H  0.43899237  0.79747835  0.05231507     0.08730
H558        H  0.49991332  0.80576333  0.13855534     0.08570
C559        C  0.80158762  0.20750957  0.14992909     0.05610
C560        C  0.83300920  0.22044686  0.15918952    -0.10540
C561        C  0.85094732  0.20754334  0.18631758     0.03110
C562        C  0.83642176  0.18133819  0.20416732    -0.09060
C563        C  0.80499992  0.16830715  0.19519163     0.05600
C564        C  0.78836433  0.18161205  0.16808342    -0.08480
H565        H  0.84371984  0.24023841  0.14493655     0.11200
H566        H  0.84980624  0.17069615  0.22471816     0.08730
H567        H  0.76565148  0.17070029  0.15997331     0.08570
C568        C  0.81406090  0.02461545  0.05592271     0.05610
C569        C  0.84613126  0.01620101  0.04670796    -0.10540
C570        C  0.86101719  0.03254902  0.02042060     0.03110
C571        C  0.84379063  0.05659060  0.00297849    -0.09060
C572        C  0.81167505  0.06462408  0.01259623     0.05600
C573        C  0.79617148  0.04732804  0.03772652    -0.08480
H574        H  0.86041349  0.99934963  0.06174989     0.11200
H575        H  0.85630771  0.07102924  0.98427808     0.08730
H576        H  0.77174275  0.05461389  0.04590395     0.08570
C577        C  0.07007371  0.29902032  0.89731942     0.05610
C578        C  0.09959576  0.28557093  0.90973922    -0.10540
C579        C  0.11559202  0.29914742  0.93735767     0.03110
C580        C  0.09907839  0.32633111  0.95361258    -0.09060
C581        C  0.06872755  0.34023439  0.94043159     0.05600
C582        C  0.05674137  0.32699594  0.91145038    -0.08480
H583        H  0.11066468  0.26482237  0.89718497     0.11200
H584        H  0.10960846  0.33651179  0.97587945     0.08730
H585        H  0.03773103  0.33997228  0.89843663     0.08570
C586        C  0.13907315  0.48460782  0.76043074     0.05610
C587        C  0.12608783  0.45633069  0.74564279    -0.10540
C588        C  0.09480305  0.44504961  0.75471755     0.03110
C589        C  0.07536697  0.46327903  0.77601137    -0.09060
C590        C  0.08922315  0.48864703  0.79427658     0.05600
C591        C  0.12062026  0.50082057  0.78518424    -0.08480
H592        H  0.14087857  0.44225530  0.72847711     0.11200
H593        H  0.05041261  0.45507362  0.78116491     0.08730
H594        H  0.13094128  0.52168493  0.79805950     0.08570
C595        C  0.93155941  0.13538800  0.27445853     0.05610
C596        C  0.90639678  0.11503676  0.26121426    -0.10540
C597        C  0.89723147  0.08580786  0.27789461     0.03110
C598        C  0.91160656  0.07913159  0.30809509    -0.09060
C599        C  0.93853129  0.09687197  0.31955429     0.05600
C600        C  0.94850184  0.12518860  0.30282970    -0.08480
H601        H  0.89357189  0.12226114  0.23888298     0.11200
H602        H  0.90072221  0.06079031  0.32383188     0.08730
H603        H  0.96887789  0.13960671  0.31219233     0.08570
C604        C  0.79296560  0.12761217  0.47693149     0.05610
C605        C  0.82164937  0.10926654  0.48619815    -0.10540
C606        C  0.82652025  0.07626732  0.47476643     0.03110
C607        C  0.80189094  0.06232857  0.45550275    -0.09060
C608        C  0.77657592  0.08158518  0.44275319     0.05600
C609        C  0.77102094  0.11332988  0.45448218    -0.08480
H610        H  0.84029130  0.12065028  0.50126520     0.11200
H611        H  0.80398034  0.03740884  0.44671724     0.08730
H612        H  0.75087151  0.12770470  0.44436753     0.08570
C613        C  0.80560961  0.41772098  0.08241902     0.05610
C614        C  0.82670905  0.43435216  0.06179060    -0.10540
C615        C  0.83780810  0.46551256  0.06969127     0.03110
C616        C  0.82633837  0.47955225  0.10072774    -0.09060
C617        C  0.80404362  0.46115775  0.12187953     0.05600
C618        C  0.79485810  0.43013813  0.11203275    -0.08480
H619        H  0.83480833  0.42171009  0.03981514     0.11200
H620        H  0.83455050  0.50374363  0.10810477     0.08730
H621        H  0.77793505  0.41565721  0.12696563     0.08570
C622        C  0.89372769  0.28998230  0.06211643     0.05610
C623        C  0.89965263  0.28563207  0.09615831    -0.10540
C624        C  0.93037637  0.29428268  0.10977579     0.03110
C625        C  0.95484096  0.30763353  0.08964564    -0.09060
C626        C  0.94875370  0.31236836  0.05604063     0.05600
C627        C  0.91922799  0.30130479  0.04199221    -0.08480
H628        H  0.88024720  0.27643789  0.11206217     0.11200
H629        H  0.97760846  0.31664469  0.10058182     0.08730
H630        H  0.91540757  0.30446024  0.01574157     0.08570
C631        C  0.44849539  0.06151659  0.85057809     0.05610
C632        C  0.46258391  0.08894629  0.83319849    -0.10540
C633        C  0.44164588  0.10995299  0.81402485     0.03110
C634        C  0.40814652  0.10378685  0.81336184    -0.09060
C635        C  0.39541322  0.07660461  0.82927009     0.05600
C636        C  0.41450219  0.05686555  0.84887754    -0.08480
H637        H  0.48890396  0.09355290  0.83433349     0.11200
H638        H  0.39209865  0.11809057  0.79735142     0.08730
H639        H  0.40230196  0.03672300  0.86130429     0.08570
C640        C  0.29434598  0.06820922  0.95004243     0.05610
C641        C  0.28954356  0.10184044  0.95483715    -0.10540
C642        C  0.27655581  0.12133797  0.92969707     0.03110
C643        C  0.26942672  0.10609862  0.89866144    -0.09060
C644        C  0.27342834  0.07139857  0.89408257     0.05600
C645        C  0.28367944  0.05294505  0.92107346    -0.08480
H646        H  0.29775710  0.11322147  0.97765405     0.11200
H647        H  0.26162755  0.12100415  0.87821923     0.08730
H648        H  0.28589716  0.02659849  0.91918661     0.08570
C649        C  0.07343460  0.80201446  0.47201863     0.05610
C650        C  0.10609819  0.79040583  0.47530117    -0.10540
C651        C  0.11544721  0.76061671  0.46025543     0.03110
C652        C  0.09191181  0.74209629  0.44334478    -0.09060
C653        C  0.05961178  0.75364102  0.44023110     0.05600
C654        C  0.05004166  0.78250272  0.45603181    -0.08480
H655        H  0.12430940  0.80506547  0.48799067     0.11200
H656        H  0.09952445  0.72045954  0.42972242     0.08730
H657        H  0.02504336  0.79144539  0.45268180     0.08570
C658        C  0.05621574  0.89634019  0.30091933     0.05610
C659        C  0.04143871  0.91399108  0.32635400    -0.10540
C660        C  0.05554507  0.94251528  0.33904269     0.03110
C661        C  0.08683489  0.95292051  0.32648463    -0.09060
C662        C  0.10308323  0.93504233  0.30103472     0.05600
C663        C  0.08709963  0.90691385  0.28835815    -0.08480
H664        H  0.01958050  0.90444632  0.33770837     0.11200
H665        H  0.09867490  0.97446308  0.33682778     0.08730
H666        H  0.09900909  0.89285219  0.26903807     0.08570
C667        C  0.18383361  0.81124561  0.15471074     0.05610
C668        C  0.15759293  0.79521506  0.17032766    -0.10540
C669        C  0.14147278  0.80888251  0.19754107     0.03110
C670        C  0.15203521  0.84004478  0.20957894    -0.09060
C671        C  0.17835657  0.85751770  0.19465241     0.05600
C672        C  0.19409070  0.84259963  0.16702712    -0.08480
H673        H  0.14878847  0.77242717  0.16043451     0.11200
H674        H  0.13937157  0.85095930  0.23040655     0.08730
H675        H  0.21408921  0.85549444  0.15490442     0.08570
C676        C  0.01147553  0.83307754  0.06263446     0.05610
C677        C  0.00613725  0.86612904  0.05562687    -0.10540
C678        C  0.02427223  0.88116637  0.03061632     0.03110
C679        C  0.04710125  0.86324079  0.01219449    -0.09060
C680        C  0.05191106  0.83000713  0.01920843     0.05600
C681        C  0.03302364  0.81467961  0.04343507    -0.08480
H682        H  0.98939953  0.88043053  0.07071775     0.11200
H683        H  0.06222033  0.87543762  0.99380689     0.08730
H684        H  0.03710476  0.78903016  0.04926525     0.08570
C685        C  0.93330218  0.04036212  0.69332825     0.05610
C686        C  0.90080495  0.03563167  0.70371275    -0.10540
C687        C  0.88469539  0.06018177  0.72133418     0.03110
C688        C  0.90156482  0.08916214  0.72950481    -0.09060
C689        C  0.93465438  0.09368238  0.71957468     0.05600
C690        C  0.95082035  0.06838926  0.70292698    -0.08480
H691        H  0.88699933  0.01441821  0.69510387     0.11200
H692        H  0.88850218  0.10872995  0.74200818     0.08730
H693        H  0.97587233  0.07155334  0.69422527     0.08570
C694        C  0.91936511  0.16081367  0.53703168     0.05610
C695        C  0.88449350  0.16725925  0.53941446    -0.10540
C696        C  0.87232233  0.19997679  0.54376962     0.03110
C697        C  0.89538190  0.22507165  0.54802785    -0.09060
C698        C  0.92918031  0.21814483  0.54875981     0.05600
C699        C  0.94088241  0.18748176  0.53887227    -0.08480
H700        H  0.86728795  0.14707766  0.53921323     0.11200
H701        H  0.88690992  0.24923041  0.55543630     0.08730
H702        H  0.96731261  0.18370511  0.53849669     0.08570
C703        C  0.96633340  0.45084467  0.61492021     0.05610
C704        C  0.94022407  0.46921542  0.62856291    -0.10540
C705        C  0.92852904  0.46231682  0.66060087     0.03110
C706        C  0.94485242  0.43899693  0.67985501    -0.09060
C707        C  0.96952276  0.41925714  0.66644848     0.05600
C708        C  0.98050485  0.42553291  0.63390097    -0.08480
H709        H  0.92856758  0.48822899  0.61409316     0.11200
H710        H  0.93737158  0.43584542  0.70518985     0.08730
H711        H  0.99966814  0.41039273  0.62314852     0.08570
C712        C  0.83465740  0.34238461  0.65669540     0.05610
C713        C  0.82075603  0.32437328  0.63115232    -0.10540
C714        C  0.78719982  0.31759026  0.63108334     0.03110
C715        C  0.76681390  0.33094532  0.65621350    -0.09060
C716        C  0.78118406  0.35031564  0.68177752     0.05600
C717        C  0.81514439  0.35635628  0.68089187    -0.08480
H718        H  0.83680814  0.31243310  0.61336120     0.11200
H719        H  0.74049462  0.32613465  0.65609224     0.08730
H720        H  0.82738050  0.37039274  0.70004280     0.08570
C721        C  0.16050691  0.87921911  0.52603320     0.05610
C722        C  0.17371965  0.85298148  0.50801457    -0.10540
C723        C  0.20199098  0.83693980  0.51998505     0.03110
C724        C  0.21998366  0.85049493  0.54620040    -0.09060
C725        C  0.20688662  0.87723251  0.56313996     0.05600
C726        C  0.17516774  0.88766852  0.55575615    -0.08480
H727        H  0.16183638  0.84472560  0.48557197     0.11200
H728        H  0.24338954  0.84000742  0.55367477     0.08730
H729        H  0.16249337  0.90325082  0.57312237     0.08570
C730        C  0.04289595  0.86860173  0.69087933     0.05610
C731        C  0.02503092  0.88634614  0.66601981    -0.10540
C732        C  0.03768582  0.91632993  0.65232615     0.03110
C733        C  0.06856745  0.92695214  0.66226715    -0.09060
C734        C  0.08516537  0.91323718  0.68869587     0.05600
C735        C  0.07275402  0.88339068  0.70266103    -0.08480
H736        H  0.00177484  0.87669680  0.65704781     0.11200
H737        H  0.08072582  0.94554336  0.64794074     0.08730
H738        H  0.08654632  0.87149914  0.72218693     0.08570
C739        C  0.28049060  0.76317641  0.59848860     0.05610
C740        C  0.26333726  0.78981535  0.61244171    -0.10540
C741        C  0.27162045  0.80073515  0.64433414     0.03110
C742        C  0.29433278  0.78326950  0.66295474    -0.09060
C743        C  0.31398749  0.75969718  0.64805936     0.05600
C744        C  0.30620789  0.74836254  0.61631679    -0.08480
H745        H  0.24500483  0.80286638  0.59812663     0.11200
H746        H  0.29973968  0.79095795  0.68804330     0.08730
H747        H  0.32118108  0.72951187  0.60496719     0.08570
C748        C  0.44815681  0.94552773  0.61583299     0.05610
C749        C  0.42101340  0.96194576  0.63205004    -0.10540
C750        C  0.40671371  0.94941004  0.66227184     0.03110
C751        C  0.41963925  0.92074565  0.67494432    -0.09060
C752        C  0.44817729  0.90664835  0.66260011     0.05600
C753        C  0.46186321  0.91828184  0.63257931    -0.08480
H754        H  0.41122294  0.98409164  0.62142638     0.11200
H755        H  0.40637216  0.90820789  0.69412585     0.08730
H756        H  0.48298795  0.90580042  0.62205701     0.08570
C757        C  0.51355627  0.14762347  0.92329343     0.05610
C758        C  0.49819434  0.15698963  0.89268875    -0.10540
C759        C  0.51633975  0.17503799  0.86839969     0.03110
C760        C  0.54928612  0.18228830  0.87448739    -0.09060
C761        C  0.56386291  0.17338506  0.90414466     0.05600
C762        C  0.54643750  0.15653237  0.92831125    -0.08480
H763        H  0.47281733  0.15008169  0.88777385     0.11200
H764        H  0.56351878  0.19609995  0.85650429     0.08730
H765        H  0.55947493  0.14966263  0.95056378     0.08570
C766        C  0.67166558  0.04363286  0.92549647     0.05610
C767        C  0.68494493  0.06920810  0.94434272    -0.10540
C768        C  0.70856627  0.09030841  0.93104354     0.03110
C769        C  0.72180383  0.08371966  0.89971864    -0.09060
C770        C  0.71077948  0.05676711  0.88136130     0.05600
C771        C  0.68570531  0.03649793  0.89441492    -0.08480
H772        H  0.67605697  0.07312769  0.96915818     0.11200
H773        H  0.74011555  0.10011511  0.88919983     0.08730
H774        H  0.67669167  0.01589593  0.88023558     0.08570
C775        C  0.59558370  0.27172696  0.77343887     0.05610
C776        C  0.61743586  0.25423908  0.79352478    -0.10540
C777        C  0.64995235  0.26525563  0.79731284     0.03110
C778        C  0.66135742  0.29202049  0.77956530    -0.09060
C779        C  0.63897234  0.31238381  0.76389026     0.05600
C780        C  0.60663142  0.30084354  0.75797660    -0.08480
H781        H  0.60846371  0.23391996  0.80833023     0.11200
H782        H  0.68661533  0.30028089  0.78324366     0.08730
H783        H  0.59020186  0.31482083  0.74264915     0.08570
C784        C  0.61136960  0.45418260  0.94402405     0.05610
C785        C  0.62658181  0.42525077  0.95675319    -0.10540
C786        C  0.65703247  0.41336269  0.94364412     0.03110
C787        C  0.67130921  0.43005386  0.91769731    -0.09060
C788        C  0.65968107  0.46007717  0.90684270     0.05600
C789        C  0.62895754  0.47186569  0.91928287    -0.08480
H790        H  0.61457883  0.41177431  0.97626773     0.11200
H791        H  0.69082688  0.41838500  0.90417854     0.08730
H792        H  0.61851321  0.49420570  0.90926867     0.08570
C793        C  0.58632776  0.54053741  0.82677683     0.05610
C794        C  0.56852913  0.52500402  0.85306649    -0.10540
C795        C  0.55219917  0.54448312  0.87751001     0.03110
C796        C  0.55372127  0.57853543  0.87510378    -0.09060
C797        C  0.57123496  0.59320034  0.84961265     0.05600
C798        C  0.58892062  0.57451713  0.82718425    -0.08480
H799        H  0.56732332  0.49849225  0.85438591     0.11200
H800        H  0.53965371  0.59373434  0.89200352     0.08730
H801        H  0.60337422  0.58734830  0.80878102     0.08570
C802        C  0.69266807  0.73029531  0.88339805     0.05610
C803        C  0.66752038  0.74368172  0.86266030    -0.10540
C804        C  0.66209821  0.73128917  0.83002234     0.03110
C805        C  0.68298813  0.70695544  0.81848585    -0.09060
C806        C  0.70465426  0.69080005  0.83954933     0.05600
C807        C  0.71070140  0.70325438  0.87141618    -0.08480
H808        H  0.65214807  0.76327345  0.87185949     0.11200
H809        H  0.68134368  0.69858950  0.79329077     0.08730
H810        H  0.72873026  0.69139873  0.88707611     0.08570
C811        C  0.84131771  0.51599901  0.56592286     0.05610
C812        C  0.87469127  0.50908899  0.55964836    -0.10540
C813        C  0.89110789  0.52557167  0.53398078     0.03110
C814        C  0.87420367  0.54864598  0.51491701    -0.09060
C815        C  0.84092692  0.55485103  0.52126997     0.05600
C816        C  0.82404318  0.53664298  0.54477863    -0.08480
H817        H  0.88804783  0.49248447  0.57557524     0.11200
H818        H  0.88739008  0.56324113  0.49680594     0.08730
H819        H  0.79813129  0.54170829  0.54924599     0.08570
C820        C  0.86850236  0.69584434  0.69753250     0.05610
C821        C  0.85325932  0.70978122  0.66916553    -0.10540
C822        C  0.82232860  0.69808433  0.65696180     0.03110
C823        C  0.80705427  0.67180921  0.67263416    -0.09060
C824        C  0.81925060  0.65808502  0.70147512     0.05600
C825        C  0.85052743  0.66999856  0.71388048    -0.08480
H826        H  0.86575320  0.72942634  0.65616549     0.11200
H827        H  0.78619045  0.66044073  0.66100862     0.08730
H828        H  0.86091307  0.65897425  0.73581300     0.08570
C829        C  0.04352313  0.69642644  0.86610424     0.05610
C830        C  0.02701157  0.67048015  0.88328754    -0.10540
C831        C  0.03960647  0.65776457  0.91379913     0.03110
C832        C  0.06916139  0.66999176  0.92577707    -0.09060
C833        C  0.08452796  0.69715116  0.91222543     0.05600
C834        C  0.07212576  0.71008592  0.88175540    -0.08480
H835        H  0.00486675  0.65982628  0.87271543     0.11200
H836        H  0.08147487  0.65691236  0.94518978     0.08730
H837        H  0.08494268  0.73031111  0.87009570     0.08570
C838        C  0.17916654  0.52739935  0.88501371     0.05610
C839        C  0.18870513  0.52776031  0.85164791    -0.08660
C840        C  0.21781029  0.54423533  0.84227969     0.03110
C841        C  0.23703453  0.55991303  0.86619959    -0.09060
C842        C  0.22734050  0.55896271  0.89927173     0.05600
C843        C  0.20032642  0.54025334  0.90881163    -0.08480
H844        H  0.17295836  0.51686429  0.83314249     0.11200
H845        H  0.25768385  0.57521578  0.85877158     0.08730
H846        H  0.19306372  0.54014756  0.93459216     0.08570
C847        C  0.45894577  0.67772044  0.93264404     0.05610
C848        C  0.43088744  0.69289286  0.94550756    -0.10540
C849        C  0.40588465  0.67451232  0.96013755     0.03110
C850        C  0.41171106  0.64031306  0.96580202    -0.09060
C851        C  0.44170565  0.62522690  0.95535549     0.05600
C852        C  0.46486929  0.64439196  0.93850235    -0.08480
H853        H  0.42799017  0.71898889  0.94192971     0.11200
H854        H  0.39294423  0.62557014  0.97769322     0.08730
H855        H  0.48679528  0.63295637  0.92833977     0.08570
C856        C  0.28819063  0.68858593  0.79908104     0.05610
C857        C  0.28140855  0.65794813  0.78540965    -0.10540
C858        C  0.30362197  0.64387013  0.76342001     0.03110
C859        C  0.33232378  0.66103020  0.75437068    -0.09060
C860        C  0.33887919  0.69239975  0.76778271     0.05600
C861        C  0.31590022  0.70641706  0.78922508    -0.08480
H862        H  0.26039960  0.64384677  0.79415512     0.11200
H863        H  0.35014819  0.64939257  0.73825219     0.08730
H864        H  0.32036422  0.72996014  0.80066678     0.08570
C865        C  0.59345201  0.81821792  0.53902410     0.05610
C866        C  0.58165255  0.84861259  0.52567334    -0.10540
C867        C  0.55545109  0.86632690  0.54122303     0.03110
C868        C  0.54104475  0.85222446  0.56968482    -0.09060
C869        C  0.55288058  0.82226163  0.58297022     0.05600
C870        C  0.57947026  0.80673778  0.56804077    -0.08480
H871        H  0.59313227  0.85861586  0.50376624     0.11200
H872        H  0.52103543  0.86493867  0.58195951     0.08730
H873        H  0.59091655  0.78646215  0.58031017     0.08570
C874        C  0.72119039  0.85950130  0.66786237     0.05610
C875        C  0.73828127  0.88260593  0.68774609    -0.10540
C876        C  0.72006314  0.90382325  0.70866237     0.03110
C877        C  0.68627765  0.89837828  0.71274491    -0.09060
C878        C  0.67012854  0.87555199  0.69299955     0.05600
C879        C  0.68688105  0.85992709  0.66801435    -0.08480
H880        H  0.76493106  0.88450169  0.68642883     0.11200
H881        H  0.67286238  0.91123632  0.73161046     0.08730
H882        H  0.67249901  0.84557765  0.65067901     0.08570
C883        C  0.52854068  0.88677509  0.17549810     0.05610
C884        C  0.52168981  0.85525654  0.18805031    -0.10540
C885        C  0.54669653  0.83769214  0.20466730     0.03110
C886        C  0.57775699  0.85199150  0.20931630    -0.09060
C887        C  0.58363276  0.88365536  0.19796801     0.05600
C888        C  0.56018765  0.89963787  0.17926678    -0.08480
H889        H  0.49737104  0.84456426  0.18486359     0.11200
H890        H  0.59694798  0.83908501  0.22234422     0.08730
H891        H  0.56737935  0.92246626  0.16771115     0.08570
C892        C  0.64291670  0.94035941  0.05463923     0.05610
C893        C  0.65247053  0.90856737  0.04388251    -0.10540
C894        C  0.68115555  0.89341985  0.05668003     0.03110
C895        C  0.69972241  0.91016441  0.08064908    -0.09060
C896        C  0.69043650  0.94173213  0.09134598     0.05600
C897        C  0.66277915  0.95676750  0.07735161    -0.08480
H898        H  0.63740999  0.89549686  0.02603952     0.11200
H899        H  0.72110607  0.89830812  0.09149190     0.08730
H900        H  0.65595168  0.98097301  0.08482626     0.08570
C901        C  0.62775258  0.93930756  0.44633994     0.05610
C902        C  0.64460469  0.91166748  0.45984679    -0.10540
C903        C  0.67684963  0.90238941  0.44865861     0.03110
C904        C  0.69176376  0.92120484  0.42403984    -0.09060
C905        C  0.67616576  0.94858214  0.41033958     0.05600
C906        C  0.64417054  0.95742883  0.42154282    -0.08480
H907        H  0.63255414  0.89719620  0.47872166     0.11200
H908        H  0.71516051  0.91363689  0.41441296     0.08730
H909        H  0.63176210  0.97826832  0.41049848     0.08570
C910        C  0.66659901  0.81248058  0.27484368     0.05610
C911        C  0.69199746  0.79328363  0.28749963    -0.10540
C912        C  0.68437641  0.76401201  0.30341633     0.03110
C913        C  0.65235410  0.75115455  0.30181055    -0.09060
C914        C  0.62713582  0.77004281  0.28822923     0.05600
C915        C  0.63410222  0.80090391  0.27510006    -0.08480
H916        H  0.71668820  0.80346479  0.28976131     0.11200
H917        H  0.64628776  0.72877331  0.31500107     0.08730
H918        H  0.61409133  0.81661909  0.26750660     0.08570
C919        C  0.91128047  0.53326029  0.13990412     0.05610
C920        C  0.88525767  0.51653757  0.15796358    -0.10540
C921        C  0.85989328  0.53503769  0.17489649     0.03110
C922        C  0.86093641  0.56895827  0.17262937    -0.09060
C923        C  0.88641916  0.58462626  0.15601140     0.05600
C924        C  0.91016481  0.56732145  0.13876994    -0.08480
H925        H  0.88493471  0.49000438  0.15898290     0.11200
H926        H  0.84368497  0.58363975  0.18686856     0.08730
H927        H  0.92913170  0.58121648  0.12612171     0.08570
C928        C  0.90119118  0.68881619  0.03476926     0.05610
C929        C  0.86962851  0.70213152  0.02809344    -0.10540
C930        C  0.85533603  0.72556571  0.04953318     0.03110
C931        C  0.87345268  0.73484832  0.07813388    -0.09060
C932        C  0.90571406  0.72224612  0.08421906     0.05600
C933        C  0.91969443  0.70138423  0.06095877    -0.08480
H934        H  0.85605002  0.69383127  0.00669094     0.11200
H935        H  0.86242869  0.75158343  0.09569139     0.08730
H936        H  0.94497496  0.69355809  0.06363300     0.08570
C937        C  0.77418494  0.62031374  0.28991342     0.05610
C938        C  0.78059284  0.64309167  0.26489999    -0.10540
C939        C  0.78385285  0.67658233  0.27240933     0.03110
C940        C  0.77276214  0.68875013  0.30257933    -0.09060
C941        C  0.77217058  0.66778632  0.32961229     0.05600
C942        C  0.77196990  0.63298747  0.32298503    -0.08480
H943        H  0.78806966  0.63430290  0.24076137     0.11200
H944        H  0.77350487  0.71502999  0.30642478     0.08730
H945        H  0.77217896  0.61626926  0.34321115     0.08570
C946        C  0.97057676  0.61291680  0.44685693     0.05610
C947        C  0.97718546  0.62883849  0.41600226    -0.10540
C948        C  0.96816186  0.66255204  0.41088193     0.03110
C949        C  0.95646477  0.67998708  0.43778807    -0.09060
C950        C  0.94395796  0.66316831  0.46490878     0.05600
C951        C  0.95260210  0.63038997  0.47055677    -0.08480
H952        H  0.98820841  0.61509722  0.39608708     0.11200
H953        H  0.95105869  0.70586493  0.43562279     0.08730
H954        H  0.94311747  0.61779194  0.49215068     0.08570
O955        O  0.91939556  0.67207702  0.19607022    -0.85700
C956        C  0.96384001  0.85155707  0.20409512     1.14340
O957        O  0.95110191  0.71529982  0.24630610    -1.33500
O958        O  0.97891678  0.79373420  0.15192139    -0.87180
O959        O  0.93020205  0.64396954  0.24237223    -0.87850
O960        O  0.01497439  0.66726215  0.23005126    -0.76670
O961        O  0.94682766  0.73524317  0.17888415    -0.98760
C962        C  0.06618989  0.75176263  0.21620981     1.24390
O963        O  0.00844067  0.73612176  0.27537818    -1.33650
Mn964      Mn  0.96074393  0.76076223  0.27246741     1.82050
O965        O  0.05018966  0.72673360  0.20692190    -0.75740
O966        O  0.03034914  0.79843356  0.17137699    -0.85140
C967        C  0.99950436  0.82113929  0.28618767     1.15470
C968        C  0.00952839  0.79831595  0.14799185     1.10200
O969        O  0.94427564  0.74789714  0.32294579    -0.76680
O970        O  0.98247074  0.77050755  0.22344089    -1.30380
O971        O  0.96421442  0.70185824  0.31419928    -0.95890
C972        C  0.08390001  0.70423833  0.29211628     1.08910
Mn973      Mn  0.02187838  0.80401813  0.22161018     1.48570
O974        O  0.05917615  0.68551901  0.29608778    -0.85090
Mn975      Mn  0.94461760  0.67651106  0.27896369     1.49560
O976        O  0.87683540  0.70795109  0.24033457    -0.88970
C977        C  0.96390730  0.71919005  0.16093182     1.22100
C978        C  0.87269351  0.69807514  0.26952375     1.14160
Mn979      Mn  0.00029231  0.71940752  0.22497054     1.80970
O980        O  0.01805267  0.80577772  0.26892166    -0.94120
Mn981      Mn  0.91495809  0.71941556  0.20969708     1.49260
C982        C  0.92276439  0.64577321  0.21203707     1.10680
Mn983      Mn  0.04657072  0.77009526  0.28161347     1.49930
C984        C  0.03188455  0.75379716  0.35368158     1.13590
O985        O  0.99091934  0.66852863  0.27499343    -0.99920
O986        O  0.99347948  0.84483471  0.21131856    -0.89580
C987        C  0.00564035  0.65214563  0.25579245     1.24870
O988        O  0.05201457  0.77022180  0.23452637    -1.00310
O989        O  0.94125693  0.83018624  0.20119896    -0.87710
O990        O  0.03763452  0.77497106  0.33154584    -0.87320
O991        O  0.89578273  0.68863108  0.28854305    -0.87340
Mn992      Mn  0.94640897  0.78115428  0.18839320     1.47860
O993        O  0.97280914  0.80734741  0.29416334    -0.75810
C994        C  0.95204311  0.71976688  0.33390693     1.17920
O995        O  0.98928238  0.70665160  0.17399634    -0.74550
O996        O  0.91168004  0.78255985  0.26608564    -0.74160
Mn997      Mn  0.01049620  0.69625189  0.30768017     1.51060
O998        O  0.08202119  0.73510678  0.28965902    -0.86510
O999        O  0.91347777  0.76513190  0.21788449    -0.94040
O1000       O  0.02511299  0.72400534  0.34784050    -0.89050
C1001       C  0.89780693  0.77936490  0.23824483     1.15710
O1002       O  0.69713839  0.78665448  0.41469271    -0.85700
C1003       C  0.73004165  0.79599447  0.60156243     1.14340
O1004       O  0.72404460  0.74192442  0.46788118    -1.33500
O1005       O  0.74651988  0.84357763  0.54348012    -0.87180
O1006       O  0.70736837  0.73602962  0.39597164    -0.87850
O1007       O  0.78925926  0.75318362  0.42094422    -0.76670
O1008       O  0.71816376  0.81194775  0.48079161    -0.98760
C1009       C  0.83691358  0.77273627  0.50831299     1.24390
O1010       O  0.77935118  0.71480140  0.49509477    -1.33650
Mn1011     Mn  0.73020230  0.72059234  0.51660408     1.82050
O1012       O  0.82342993  0.78082087  0.48127649    -0.75740
O1013       O  0.79809303  0.82522376  0.55028142    -0.85140
C1014       C  0.76565273  0.71273811  0.58076091     1.15470
C1015       C  0.77643156  0.84788967  0.55170256     1.10200
O1016       O  0.71279391  0.66942761  0.50702766    -0.76680
O1017       O  0.75212012  0.77013851  0.52280774    -1.30380
O1018       O  0.73769659  0.67295247  0.46268990    -0.95890
C1019       C  0.85668674  0.69273334  0.47061062     1.08910
Mn1020     Mn  0.78939472  0.77496134  0.55852922     1.48570
O1021       O  0.83330150  0.68997248  0.44991785    -0.85090
Mn1022     Mn  0.71983624  0.70460820  0.43297154     1.49560
O1023       O  0.65038548  0.74593678  0.45424354    -0.88970
C1024       C  0.73669697  0.82766340  0.46394101     1.22100
C1025       C  0.64723322  0.71522544  0.45048588     1.14160
Mn1026     Mn  0.77297223  0.76335750  0.47276131     1.80970
O1027       O  0.78484133  0.72828633  0.56450447    -0.94120
Mn1028     Mn  0.68811155  0.77861774  0.46456522     1.49260
C1029       C  0.70262347  0.76632514  0.39158562     1.10680
Mn1030     Mn  0.81501030  0.71139733  0.53224211     1.49930
C1031       C  0.80445412  0.63898078  0.52098848     1.13590
O1032       O  0.76626913  0.70820871  0.42638731    -0.99920
O1033       O  0.75999642  0.78898286  0.59713508    -0.89580
C1034       C  0.78061990  0.72595257  0.40807127     1.24870
O1035       O  0.81987479  0.75774071  0.52700649    -1.00310
O1036       O  0.70831413  0.79562100  0.57871060    -0.87710
O1037       O  0.80620187  0.66215805  0.54183014    -0.87320
O1038       O  0.67097459  0.69589817  0.44458493    -0.87340
Mn1039     Mn  0.71559658  0.80574335  0.52838039     1.47860
O1040       O  0.73938419  0.70371153  0.56645993    -0.75810
C1041       C  0.72231449  0.65561321  0.48050551     1.17920
O1042       O  0.76288912  0.81310900  0.45486659    -0.74550
O1043       O  0.67979303  0.72979685  0.53436859    -0.74160
Mn1044     Mn  0.78417207  0.67918439  0.45867567     1.51060
O1045       O  0.85267821  0.69853937  0.50097104    -0.86510
O1046       O  0.68386467  0.77515224  0.51132408    -0.94040
O1047       O  0.79799427  0.64296632  0.49073171    -0.89050
C1048       C  0.66665015  0.75690746  0.52659645     1.15710
O1049       O  0.74803727  0.10533144  0.29695937    -0.85700
C1050       C  0.84657806  0.98400939  0.19927100     1.14340
O1051       O  0.74264381  0.03378224  0.27888022    -1.33500
O1052       O  0.79314084  0.05333209  0.16699652    -0.87180
O1053       O  0.69699885  0.08600000  0.30581509    -0.87850
O1054       O  0.67089629  0.04249349  0.23954060    -0.76670
O1055       O  0.77386225  0.07749775  0.23442941    -0.98760
C1056       C  0.71072874  0.99321896  0.16748858     1.24390
O1057       O  0.71608624  0.97801958  0.25241054    -1.33650
Mn1058     Mn  0.76551707  0.98610911  0.27255006     1.82050
O1059       O  0.70237288  0.01854942  0.18283497    -0.75740
O1060       O  0.78542715  0.00145415  0.15076428    -0.85140
C1061       C  0.77528220  0.92314757  0.23880486     1.15470
C1062       C  0.79044386  0.03145998  0.14479144     1.10200
O1063       O  0.75841346  0.96852837  0.32212044    -0.76680
O1064       O  0.76961754  0.00737131  0.22304986    -1.30380
O1065       O  0.71119593  0.98988932  0.32193917    -0.95890
C1066       C  0.64044041  0.94924880  0.22779777     1.08910
Mn1067     Mn  0.77410895  0.97036718  0.18836814     1.48570
O1068       O  0.64317077  0.95742261  0.25787748    -0.85090
Mn1069     Mn  0.70649012  0.03663438  0.31516276     1.49560
O1070       O  0.78923576  0.05820616  0.33020787    -0.88970
C1071       C  0.75281317  0.09194955  0.21939306     1.22100
C1072       C  0.76940192  0.05591742  0.35435005     1.14160
Mn1073     Mn  0.72057451  0.02691158  0.23093070     1.80970
O1074       O  0.75912970  0.93903204  0.21991453    -0.94120
Mn1075     Mn  0.77888687  0.06947309  0.28134151     1.49260
C1076       C  0.71816138  0.10906970  0.30485647     1.10680
Mn1077     Mn  0.71263001  0.94267576  0.21559420     1.49930
C1078       C  0.69438676  0.90051052  0.27797020     1.13590
O1079       O  0.67444133  0.01871922  0.28494675    -0.99920
O1080       O  0.82367593  0.96286932  0.19812689    -0.89580
C1081       C  0.65733027  0.03292081  0.26559525     1.24870
O1082       O  0.72712834  0.97311583  0.18204589    -1.00310
O1083       O  0.84171167  0.01437357  0.20325539    -0.87710
O1084       O  0.70122476  0.90527100  0.24785614    -0.87320
O1085       O  0.73879142  0.05033922  0.35155900    -0.87340
Mn1086     Mn  0.80371503  0.04506660  0.21660437     1.47860
O1087       O  0.78436850  0.93748469  0.26468230    -0.75810
C1088       C  0.73175026  0.97457208  0.33696464     1.17920
O1089       O  0.72676063  0.07625964  0.21300364    -0.74550
O1090       O  0.81601012  0.99598376  0.28819582    -0.74160
Mn1091     Mn  0.68077439  0.97247168  0.28962600     1.51060
O1092       O  0.66366351  0.95001772  0.20706470    -0.86510
O1093       O  0.80916154  0.03930356  0.26260978    -0.94040
O1094       O  0.69113205  0.92336443  0.29897258    -0.89050
C1095       C  0.82809962  0.02208140  0.27685118     1.15710
O1096       O  0.50653331  0.72797028  0.85061640    -0.85700
C1097       C  0.60296897  0.81798103  0.71578551     1.14340
O1098       O  0.50544390  0.73409085  0.77498085    -1.33500
O1099       O  0.55715089  0.84762289  0.78226494    -0.87180
O1100       O  0.46137368  0.70542899  0.82745951    -0.87850
O1101       O  0.43236541  0.76888218  0.78260603    -0.76670
O1102       O  0.53562861  0.78430956  0.81368173    -0.98760
C1103       C  0.46464671  0.83793724  0.72535433     1.24390
O1104       O  0.47659349  0.75477298  0.71684546    -1.33650
Mn1105     Mn  0.52755553  0.73838343  0.72615144     1.82050
O1106       O  0.45840587  0.82670380  0.75345422    -0.75740
O1107       O  0.53369859  0.86349576  0.73465689    -0.85140
C1108       C  0.53613780  0.76994885  0.66070253     1.15470
C1109       C  0.54643312  0.86930340  0.76248572     1.10200
O1110       O  0.52304644  0.68778948  0.70980287    -0.76680
O1111       O  0.52941615  0.78897005  0.74388095    -1.30380
O1112       O  0.47668058  0.68749009  0.73202231    -0.95890
C1113       C  0.39747858  0.77046795  0.68791033     1.08910
Mn1114     Mn  0.52821582  0.82286944  0.70507487     1.48570
O1115       O  0.40362616  0.74202613  0.69846498    -0.85090
Mn1116     Mn  0.47196490  0.69533315  0.77864526     1.49560
O1117       O  0.55203195  0.68892248  0.81166381    -0.88970
C1118       C  0.51532478  0.79971277  0.82835666     1.22100
C1119       C  0.53655367  0.66313499  0.80389710     1.14160
Mn1120     Mn  0.48080739  0.78018467  0.76517184     1.80970
O1121       O  0.51737037  0.78841552  0.67417018    -0.94120
Mn1122     Mn  0.54024969  0.73754124  0.81342349     1.49260
C1123       C  0.47760298  0.71607720  0.85204085     1.10680
Mn1124     Mn  0.46978055  0.78766158  0.67807326     1.49930
C1125       C  0.45339468  0.72301435  0.63960182     1.13590
O1126       O  0.43679024  0.72217972  0.76068042    -0.99920
O1127       O  0.57815527  0.82282378  0.69740805    -0.89580
C1128       C  0.41934538  0.74210733  0.77418332     1.24870
O1129       O  0.48176933  0.82124736  0.70834351    -1.00310
O1130       O  0.60209074  0.80675077  0.74490247    -0.87710
O1131       O  0.45993324  0.75339521  0.64143595    -0.87320
O1132       O  0.50772057  0.66218210  0.79195374    -0.87340
Mn1133     Mn  0.56576841  0.79768195  0.77932960     1.47860
O1134       O  0.54632651  0.74576806  0.67719729    -0.75810
C1135       C  0.49681145  0.67248122  0.71637407     1.17920
O1136       O  0.48785956  0.80298436  0.81377517    -0.74550
O1137       O  0.57816125  0.72406129  0.73864864    -0.74160
Mn1138     Mn  0.44347519  0.71535990  0.71401508     1.51060
O1139       O  0.41912142  0.79272341  0.68452354    -0.86510
O1140       O  0.57229185  0.75136010  0.78161526    -0.94040
O1141       O  0.45279289  0.70399603  0.66447857    -0.89050
C1142       C  0.59019738  0.73455588  0.76549053     1.15710
O1143       O  0.24392735  0.70422185  0.89115433    -0.85700
C1144       C  0.13447415  0.79076965  0.01593643     1.14340
O1145       O  0.24334209  0.71726819  0.96503264    -1.33500
O1146       O  0.18430007  0.82346439  0.94679894    -0.87180
O1147       O  0.29302386  0.69350119  0.91429472    -0.87850
O1148       O  0.31443176  0.75862018  0.95663884    -0.76670
O1149       O  0.20967462  0.75967956  0.92270626    -0.98760
C1150       C  0.26922022  0.82883302  0.01004112     1.24390
O1151       O  0.26780072  0.74458654  0.02217781    -1.33650
Mn1152     Mn  0.21935591  0.72205620  0.01326526     1.82050
O1153       O  0.27914083  0.81673834  0.98311415    -0.75740
O1154       O  0.19557113  0.84232154  0.99743823    -0.85140
C1155       C  0.20588011  0.75625070  0.07794670     1.15470
C1156       C  0.18825502  0.84652296  0.96741894     1.10200
O1157       O  0.22845593  0.67245064  0.03061905    -0.76680
O1158       O  0.21284261  0.77068793  0.99228466    -1.30380
O1159       O  0.27492250  0.67680839  0.00909084    -0.95890
C1160       C  0.34373384  0.76948815  0.05210325     1.08910
Mn1161     Mn  0.20697593  0.80545033  0.02966903     1.48570
O1162       O  0.34004799  0.74006602  0.04327766    -0.85090
Mn1163     Mn  0.28157126  0.68301957  0.96289341     1.49560
O1164       O  0.20211833  0.66267192  0.93405459    -0.88970
C1165       C  0.22782066  0.77694112  0.90728851     1.22100
C1166       C  0.22301411  0.64008239  0.93922342     1.14160
Mn1167     Mn  0.26307662  0.76651698  0.97253254     1.80970
O1168       O  0.22241358  0.77601403  0.06338645    -0.94120
Mn1169     Mn  0.20886101  0.71278487  0.92694340     1.49260
C1170       C  0.27477832  0.69928390  0.88952888     1.10680
Mn1171     Mn  0.26977482  0.78058907  0.05892117     1.49930
C1172       C  0.29032949  0.72044341  0.10031138     1.13590
O1173       O  0.31166268  0.71393698  0.98135214    -0.99920
O1174       O  0.15736823  0.79588498  0.03668032    -0.89580
C1175       C  0.32865530  0.73254566  0.96612080     1.24870
O1176       O  0.25357080  0.81077721  0.02699236    -1.00310
O1177       O  0.13904650  0.78331312  0.98592892    -0.87710
O1178       O  0.28228772  0.75007835  0.09681811    -0.87320
O1179       O  0.25233982  0.64502877  0.94843896    -0.87340
Mn1180     Mn  0.17768165  0.77362504  0.95440773     1.47860
O1181       O  0.19902209  0.73012075  0.06240167    -0.75810
C1182       C  0.25569909  0.65948449  0.02313568     1.17920
O1183       O  0.25429722  0.78514815  0.92207501    -0.74550
O1184       O  0.17023304  0.70291347  0.00146138    -0.74160
Mn1185     Mn  0.30399622  0.70889146  0.02771458     1.51060
O1186       O  0.32033971  0.79034093  0.05266169    -0.86510
O1187       O  0.17459486  0.72682488  0.95634795    -0.94040
O1188       O  0.29310466  0.69983257  0.07691674    -0.89050
C1189       C  0.15767025  0.71051266  0.97391583     1.15710
O1190       O  0.63634793  0.45142684  0.75542411    -0.85700
C1191       C  0.75747895  0.55577712  0.85417858     1.14340
O1192       O  0.71002345  0.47334262  0.75082098    -1.33500
O1193       O  0.68945813  0.58266184  0.79949855    -0.87180
O1194       O  0.65563211  0.44538712  0.70416083    -0.87850
O1195       O  0.70175206  0.51222556  0.67786272    -0.76670
O1196       O  0.66806396  0.51435848  0.77973408    -0.98760
C1197       C  0.75513071  0.58626892  0.71793412     1.24390
O1198       O  0.76661463  0.50063006  0.72416955    -1.33650
Mn1199     Mn  0.75915358  0.48127155  0.77377653     1.82060
O1200       O  0.72814088  0.57244504  0.70950942    -0.75740
O1201       O  0.74099950  0.60248883  0.79495032    -0.85140
C1202       C  0.82351552  0.51793443  0.78265614     1.15470
C1203       C  0.71035170  0.60599867  0.80056070     1.10200
O1204       O  0.77629828  0.43144974  0.76788043    -0.76680
O1205       O  0.73703652  0.52974109  0.77734036    -1.30380
O1206       O  0.75236564  0.43116052  0.72194352    -0.95890
C1207       C  0.79549262  0.52078380  0.64705436     1.08910
Mn1208     Mn  0.77367666  0.56527415  0.78211123     1.48570
O1209       O  0.78795272  0.49113076  0.65264942    -0.85090
Mn1210     Mn  0.70584438  0.43706791  0.71471259     1.49560
O1211       O  0.68200854  0.41831759  0.79687380    -0.88970
C1212       C  0.65117105  0.52897894  0.76062670     1.22100
C1213       C  0.68070781  0.39584497  0.77492050     1.14160
Mn1214     Mn  0.71722919  0.52234834  0.72812950     1.80970
O1215       O  0.80665511  0.53521976  0.76618983    -0.94120
Mn1216     Mn  0.67336545  0.46818123  0.78656537     1.49260
C1217       C  0.63263090  0.44293835  0.72559761     1.10680
Mn1218     Mn  0.80310435  0.53675240  0.71916492     1.49930
C1219       C  0.84443883  0.47313523  0.70222281     1.13590
O1220       O  0.72506050  0.46679286  0.68304921    -0.99920
O1221       O  0.77962599  0.55555185  0.83200368    -0.89580
C1222       C  0.71102159  0.48551270  0.66510215     1.24870
O1223       O  0.77288079  0.57007550  0.73478151    -1.00310
O1224       O  0.72733635  0.54950259  0.84928806    -0.87710
O1225       O  0.84103597  0.50378573  0.70710889    -0.87320
O1226       O  0.68948375  0.40033503  0.74536704    -0.87340
Mn1227     Mn  0.69824664  0.53374051  0.81087459     1.47860
O1228       O  0.80967255  0.49162117  0.79216386    -0.75810
C1229       C  0.76661462  0.41566314  0.74284436     1.17920
O1230       O  0.66606804  0.53938576  0.73515433    -0.74550
O1231       O  0.74923887  0.46621111  0.82431518    -0.74160
Mn1232     Mn  0.77156084  0.46188612  0.69095536     1.51060
O1233       O  0.79516465  0.54317413  0.66888054    -0.86510
O1234       O  0.70296740  0.48763560  0.81832267    -0.94040
O1235       O  0.82060285  0.45281923  0.70298244    -0.89050
C1236       C  0.72174539  0.47419903  0.83653938     1.15710
O1237       O  0.65806716  0.20645944  0.93184990    -0.85700
C1238       C  0.84056939  0.20891813  0.97034175     1.14340
O1239       O  0.70587622  0.25485469  0.96101059    -1.33500
O1240       O  0.77974246  0.15740924  0.98679418    -0.87180
O1241       O  0.63195095  0.25268765  0.94674889    -0.87850
O1242       O  0.65863649  0.24444710  0.02702790    -0.76670
O1243       O  0.72164664  0.18668683  0.95815903    -0.98760
C1244       C  0.74227021  0.22151742  0.07513649     1.24390
O1245       O  0.72915150  0.28340850  0.01731609    -1.33650
Mn1246     Mn  0.75366486  0.27814963  0.97057848     1.82050
O1247       O  0.71530882  0.21543907  0.06088817    -0.75740
O1248       O  0.78841710  0.17508716  0.03801598    -0.85140
C1249       C  0.81435914  0.28914508  0.00987847     1.15470
C1250       C  0.78564046  0.15237329  0.01684279     1.10200
O1251       O  0.74470754  0.32707523  0.95027374    -0.76680
O1252       O  0.76036272  0.22921819  0.99209329    -1.30380
O1253       O  0.69752070  0.32158642  0.96846008    -0.95890
C1254       C  0.69719884  0.30751197  0.08936053     1.08910
Mn1255     Mn  0.79491030  0.22521670  0.03026711     1.48570
O1256       O  0.68398273  0.31862892  0.06353356    -0.85090
Mn1257     Mn  0.66744223  0.28822507  0.95474248     1.49560
O1258       O  0.69588924  0.24669375  0.88721560    -0.88970
C1259       C  0.70515905  0.17110110  0.97760107     1.22100
C1260       C  0.68325738  0.27431731  0.88199216     1.14160
Mn1261     Mn  0.70928203  0.23478883  0.01079452     1.80970
O1262       O  0.79802280  0.27229211  0.02810324    -0.94120
Mn1263     Mn  0.70700091  0.21756719  0.92571404     1.49260
C1264       C  0.63232594  0.22264286  0.93885086     1.10680
Mn1265     Mn  0.76169618  0.28446418  0.05662416     1.49930
C1266       C  0.75496229  0.35759005  0.03861234     1.13590
O1267       O  0.66214510  0.28875862  0.00163217    -0.99920
O1268       O  0.83526441  0.21552520  0.00045163    -0.89580
C1269       C  0.64543094  0.27122832  0.01833339     1.24870
O1270       O  0.76081178  0.23820693  0.05969750    -1.00310
O1271       O  0.81797453  0.20491940  0.94902546    -0.87710
O1272       O  0.76813250  0.33242562  0.05085564    -0.87320
O1273       O  0.67440433  0.29412432  0.90437934    -0.87340
Mn1274     Mn  0.76830912  0.19429659  0.95537318     1.47860
O1275       O  0.80119169  0.29781592  0.98311485    -0.75810
C1276       C  0.71612922  0.33864181  0.95376105     1.17920
O1277       O  0.69300108  0.18622374  0.00167655    -0.74550
O1278       O  0.77559108  0.27109384  0.92377916    -0.74160
Mn1279     Mn  0.69397320  0.32083617  0.01492532     1.51060
O1280       O  0.72446185  0.29235689  0.09055061    -0.86510
O1281       O  0.75390979  0.22417742  0.92181534    -0.94040
O1282       O  0.72783580  0.35791777  0.02315479    -0.89050
C1283       C  0.77019787  0.24512508  0.90818098     1.15710
O1284       O  0.31386602  0.04885748  0.78114299    -0.85700
C1285       C  0.13321850  0.01255326  0.77677317     1.14340
O1286       O  0.26900301  0.01909601  0.73383361    -1.33500
O1287       O  0.19270018  0.99514495  0.83037538    -0.87180
O1288       O  0.34258900  0.03689631  0.73572071    -0.87850
O1289       O  0.31623901  0.95427819  0.74928627    -0.76670
O1290       O  0.25149521  0.02521960  0.80208365    -0.98760
C1291       C  0.22877348  0.90576835  0.76602977     1.24390
O1292       O  0.24564111  0.96280716  0.70597622    -1.33650
Mn1293     Mn  0.22195535  0.01130604  0.70924724     1.82060
O1294       O  0.25484831  0.92088210  0.77478947    -0.75740
O1295       O  0.18345039  0.94413952  0.81255202    -0.85140
C1296       C  0.15990541  0.97333146  0.69838951     1.15470
C1297       C  0.18603266  0.96534868  0.83537893     1.10200
O1298       O  0.23504796  0.02765905  0.65839323    -0.76680
O1299       O  0.21337211  0.99012539  0.75887044    -1.30380
O1300       O  0.28065244  0.00548596  0.66591223    -0.95890
C1301       C  0.27274593  0.88594690  0.68231274     1.08910
Mn1302     Mn  0.17821041  0.95221398  0.76191563     1.48570
O1303       O  0.29372675  0.90929761  0.68204037    -0.85090
Mn1304     Mn  0.30795914  0.02397293  0.70010413     1.49560
O1305       O  0.27754782  0.09167539  0.73804050    -0.88970
C1306       C  0.26839413  0.00877877  0.81980872     1.22100
C1307       C  0.28678236  0.09592776  0.70875730     1.14160
Mn1308     Mn  0.26407557  0.97057798  0.75609629     1.80970
O1309       O  0.17680781  0.95612574  0.71515384    -0.94120
Mn1310     Mn  0.26678851  0.05537204  0.76987087     1.49260
C1311       C  0.34042089  0.04381075  0.76611666     1.10680
Mn1312     Mn  0.20999954  0.92629817  0.70075063     1.49930
C1313       C  0.22622696  0.93723534  0.62863241     1.13590
O1314       O  0.31438800  0.97759634  0.70400680    -0.99920
O1315       O  0.13835405  0.98251171  0.77090764    -0.89580
C1316       C  0.33101463  0.96269992  0.72287240     1.24870
O1317       O  0.21048086  0.92050112  0.74811585    -1.00310
O1318       O  0.15594249  0.03333990  0.78165846    -0.87710
O1319       O  0.20431776  0.93569535  0.65092978    -0.87320
O1320       O  0.29730805  0.07315707  0.69008807    -0.87340
Mn1321     Mn  0.20504426  0.02665752  0.79377480     1.47860
O1322       O  0.17308631  0.99997039  0.68912277    -0.75810
C1323       C  0.26317606  0.01944716  0.64690560     1.17920
O1324       O  0.27913060  0.98241111  0.80703942    -0.74550
O1325       O  0.20160778  0.06170799  0.71672233    -0.74160
Mn1326     Mn  0.28483163  0.95902835  0.67230427     1.51060
O1327       O  0.24250636  0.88967443  0.68898144    -0.86510
O1328       O  0.22095961  0.05855969  0.76382211    -0.94040
O1329       O  0.25610943  0.94452233  0.63337826    -0.89050
C1330       C  0.20651237  0.07526337  0.74462831     1.15710
O1331       O  0.10619493  0.29982934  0.74443023    -0.85700
C1332       C  0.97456088  0.20998183  0.84351751     1.14340
O1333       O  0.03182322  0.28363728  0.73744970    -1.33500
O1334       O  0.04398956  0.17465251  0.79315317    -0.87180
O1335       O  0.08801601  0.30528683  0.69262043    -0.87850
O1336       O  0.04055464  0.24024985  0.66739660    -0.76670
O1337       O  0.07153099  0.23966622  0.77101182    -0.98760
C1338       C  0.98419499  0.17342416  0.70953423     1.24390
O1339       O  0.97496267  0.25899319  0.71009859    -1.33650
Mn1340     Mn  0.98217693  0.28039303  0.75837476     1.82060
O1341       O  0.01094414  0.18623670  0.70052958    -0.75740
O1342       O  0.99173393  0.15960391  0.78349088    -0.85140
C1343       C  0.91649899  0.24950252  0.77072178     1.15470
C1344       C  0.02154320  0.15301091  0.78997222     1.10200
O1345       O  0.96733033  0.32986241  0.74865657    -0.76680
O1346       O  0.00068459  0.23074782  0.76584049    -1.30380
O1347       O  0.99246792  0.32708040  0.70337301    -0.95890
C1348       C  0.95459715  0.23275539  0.63399151     1.08910
Mn1349     Mn  0.96165645  0.19779070  0.77067745     1.48570
O1350       O  0.96306940  0.26253810  0.63594672    -0.85090
Mn1351     Mn  0.03898727  0.31775675  0.70029314     1.49560
O1352       O  0.05970016  0.33693203  0.78285837    -0.88970
C1353       C  0.08575966  0.22313953  0.75088989     1.22100
C1354       C  0.06028535  0.35934311  0.76102679     1.14160
Mn1355     Mn  0.02223409  0.23496337  0.71695587     1.80970
O1356       O  0.93078887  0.22946911  0.75438374    -0.94120
Mn1357     Mn  0.06724324  0.28688733  0.77471041     1.49260
C1358       C  0.11075776  0.30602028  0.71417076     1.10680
Mn1359     Mn  0.93639937  0.22539152  0.70739100     1.49930
C1360       C  0.90206212  0.29100160  0.68759800     1.13590
O1361       O  0.02116154  0.28726084  0.66952000    -0.99920
O1362       O  0.95377903  0.20837485  0.82014371    -0.89580
C1363       C  0.03469192  0.26694570  0.65327007     1.24870
O1364       O  0.96490173  0.19086430  0.72385423    -1.00310
O1365       O  0.00525327  0.21430067  0.83933141    -0.87710
O1366       O  0.90173591  0.26102244  0.69595244    -0.87320
O1367       O  0.05403629  0.35449622  0.73088456    -0.87340
Mn1368     Mn  0.03764415  0.22488169  0.80139564     1.47860
O1369       O  0.93235990  0.27529852  0.77711529    -0.75810
C1370       C  0.97710695  0.34364628  0.72264504     1.17920
O1371       O  0.07006096  0.21513112  0.72537243    -0.74550
O1372       O  0.99070023  0.29790812  0.80706885    -0.74160
Mn1373     Mn  0.97536332  0.29471055  0.67311306     1.51060
O1374       O  0.94563596  0.21540128  0.65833134    -0.86510
O1375       O  0.03492595  0.27152049  0.80567358    -0.94040
O1376       O  0.92761211  0.30706233  0.68012240    -0.89050
C1377       C  0.01597157  0.28764459  0.82157219     1.15710
O1378       O  0.98544156  0.09655990  0.45192665    -0.85700
C1379       C  0.88369557  0.97705060  0.55080433     1.14340
O1380       O  0.98798586  0.02394915  0.47049695    -1.33500
O1381       O  0.93912365  0.04510213  0.57975593    -0.87180
O1382       O  0.03518377  0.07554313  0.44062330    -0.87850
O1383       O  0.06086080  0.03232170  0.50906011    -0.76670
O1384       O  0.95817312  0.06703949  0.51364972    -0.98760
C1385       C  0.02042842  0.98042631  0.58279527     1.24390
O1386       O  0.01388774  0.96763513  0.49759107    -1.33650
Mn1387     Mn  0.96413727  0.97598533  0.47764830     1.82050
O1388       O  0.02931042  0.00709764  0.56939240    -0.75740
O1389       O  0.94859000  0.99524702  0.60093298    -0.85140
C1390       C  0.95375297  0.91272379  0.51451536     1.15470
C1391       C  0.94504644  0.02602805  0.60367889     1.10200
O1392       O  0.97092552  0.95753451  0.42752682    -0.76680
O1393       O  0.96083098  0.99803503  0.52668453    -1.30380
O1394       O  0.01767230  0.97925410  0.42852926    -0.95890
C1395       C  0.09055924  0.93948166  0.51968139     1.08910
Mn1396     Mn  0.95653232  0.96204840  0.56305191     1.48570
O1397       O  0.08627785  0.94680949  0.48974703    -0.85090
Mn1398     Mn  0.02396262  0.02579763  0.43354449     1.49560
O1399       O  0.94282308  0.05186297  0.41776735    -0.88970
C1400       C  0.97709818  0.08304184  0.52951053     1.22100
C1401       C  0.96256354  0.04771317  0.39382034     1.14160
Mn1402     Mn  0.01045764  0.01725187  0.51943346     1.80970
O1403       O  0.97065657  0.92878630  0.53237587    -0.94120
Mn1404     Mn  0.95300988  0.06112207  0.46693376     1.49260
C1405       C  0.01492587  0.09936121  0.44217847     1.10680
Mn1406     Mn  0.01795511  0.93192715  0.53421263     1.49930
C1407       C  0.03680792  0.88869944  0.47241688     1.13590
O1408       O  0.05544705  0.00794425  0.46403562    -0.99920
O1409       O  0.90612354  0.95588393  0.55570241    -0.89580
C1410       C  0.07343613  0.02262792  0.48226205     1.24870
O1411       O  0.00343118  0.96325185  0.56613640    -1.00310
O1412       O  0.88915311  0.00674240  0.54406354    -0.87710
O1413       O  0.02972773  0.89327428  0.50259439    -0.87320
O1414       O  0.99236561  0.03923433  0.39650752    -0.87340
Mn1415     Mn  0.92727421  0.03642898  0.53109684     1.47860
O1416       O  0.94469038  0.92669087  0.48804249    -0.75810
C1417       C  0.99767431  0.96417796  0.41281090     1.17920
O1418       O  0.00352250  0.06822482  0.53752434    -0.74550
O1419       O  0.91324960  0.98753689  0.46166341    -0.74160
Mn1420     Mn  0.04839061  0.96152717  0.45973096     1.51060
O1421       O  0.06803303  0.93943676  0.54136580    -0.86510
O1422       O  0.92044510  0.03233321  0.48488636    -0.94040
O1423       O  0.03802201  0.91177501  0.45123766    -0.89050
C1424       C  0.90151537  0.01495800  0.47063566     1.15710
O1425       O  0.52204911  0.95155234  0.09558501    -0.85700
C1426       C  0.54416590  0.97221375  0.91053793     1.14340
O1427       O  0.47880245  0.97029024  0.03811926    -1.33500
O1428       O  0.58429456  0.99773944  0.96997702    -0.87180
O1429       O  0.46921451  0.95333949  0.11171163    -0.87850
O1430       O  0.48310799  0.03870989  0.08034638    -0.76670
O1431       O  0.54807438  0.97120007  0.02956270    -0.98760
C1432       C  0.50241162  0.08338371  0.99239981     1.24390
O1433       O  0.44967698  0.02115588  0.00599567    -1.33650
Mn1434     Mn  0.46019769  0.97285821  0.98764504     1.82050
O1435       O  0.51064885  0.07188000  0.02033677    -0.75740
O1436       O  0.56113892  0.04680615  0.96146498    -0.85140
C1437       C  0.45780006  0.00192178  0.92043787     1.15470
C1438       C  0.58620628  0.02819386  0.96325223     1.10200
O1439       O  0.41030813  0.95217818  0.99432035    -0.76680
O1440       O  0.50864286  0.99731636  0.98366345    -1.30380
O1441       O  0.40900334  0.97748116  0.03872491    -0.95890
C1442       C  0.42214007  0.09565376  0.02353842     1.08910
Mn1443     Mn  0.51391035  0.03271973  0.94733832     1.48570
O1444       O  0.41928837  0.07398624  0.04579468    -0.85090
Mn1445     Mn  0.44002812  0.96375603  0.07148082     1.49560
O1446       O  0.48947497  0.89966562  0.05931617    -0.88970
C1447       C  0.56269717  0.99153994  0.04510397     1.22100
C1448       C  0.45957184  0.89251289  0.06445610     1.14160
Mn1449     Mn  0.49710407  0.02060840  0.03117617     1.80970
O1450       O  0.46915093  0.02274138  0.93774320    -0.94120
Mn1451     Mn  0.51811033  0.93864150  0.04594100     1.49260
C1452       C  0.49959222  0.94966084  0.11744260     1.10680
Mn1453     Mn  0.44535834  0.05219798  0.96600889     1.49930
C1454       C  0.37402509  0.03265390  0.97333454     1.13590
O1455       O  0.44065823  0.01053101  0.07473660    -0.99920
O1456       O  0.53478339  0.00162782  0.91346419    -0.89580
C1457       C  0.45677964  0.02725733  0.09271962     1.24870
O1458       O  0.49041981  0.06404234  0.97369575    -1.00310
O1459       O  0.54303553  0.95139456  0.93368423    -0.87710
O1460       O  0.39905348  0.03435892  0.95467546    -0.87320
O1461       O  0.43612062  0.91326525  0.06371081    -0.87340
Mn1462     Mn  0.54741160  0.96348632  0.98306269     1.47860
O1463       O  0.44703555  0.97695917  0.93541825    -0.75810
C1464       C  0.39453225  0.96009546  0.02011624     1.17920
O1465       O  0.54646023  0.01695521  0.05233454    -0.74550
O1466       O  0.47261520  0.92466743  0.97358191    -0.74160
Mn1467     Mn  0.41151325  0.02427067  0.03989518     1.51060
O1468       O  0.42549290  0.08944118  0.99318116    -0.86510
O1469       O  0.51807959  0.92903065  0.99902377    -0.94040
O1470       O  0.37540879  0.03267328  0.00461967    -0.89050
C1471       C  0.49934067  0.91218844  0.98285737     1.15710
O1472       O  0.07356257  0.54889906  0.93142733    -0.85700
C1473       C  0.88885089  0.55733673  0.96755386     1.14340
O1474       O  0.01979817  0.50162033  0.95708838    -1.33500
O1475       O  0.94703867  0.60282141  0.98754986    -0.87180
O1476       O  0.09201545  0.49730638  0.93432992    -0.87850
O1477       O  0.06764158  0.50868999  0.02299686    -0.76670
O1478       O  0.00733312  0.56994441  0.95689536    -0.98760
C1479       C  0.98046688  0.52488303  0.07448967     1.24390
O1480       O  0.99330033  0.47189329  0.01141482    -1.33650
Mn1481     Mn  0.97031109  0.47991787  0.96393181     1.82050
O1482       O  0.00726113  0.53447630  0.06093714    -0.75740
O1483       O  0.94349744  0.58076830  0.03799041    -0.85140
C1484       C  0.90579845  0.47386293  0.00101879     1.15470
C1485       C  0.94210423  0.60517302  0.01850136     1.10200
O1486       O  0.97921743  0.42918202  0.94432356    -0.76680
O1487       O  0.96582334  0.52846100  0.98823356    -1.30380
O1488       O  0.02551456  0.43245525  0.96581288    -0.95890
C1489       C  0.01833540  0.44646882  0.08567541     1.08910
Mn1490     Mn  0.93166643  0.53254264  0.02638790     1.48570
O1491       O  0.03903083  0.44461337  0.06223891    -0.85090
Mn1492     Mn  0.05482000  0.46530747  0.94844083     1.49560
O1493       O  0.03663757  0.51230710  0.88324488    -0.88970
C1494       C  0.02393596  0.58579239  0.97525344     1.22100
C1495       C  0.04400813  0.48280292  0.87683173     1.14160
Mn1496     Mn  0.01578974  0.52041527  0.00817179     1.80970
O1497       O  0.92490317  0.48728519  0.01853534    -0.94120
Mn1498     Mn  0.02336950  0.54053322  0.92361506     1.49260
C1499       C  0.09627138  0.52759314  0.92871439     1.10680
Mn1500     Mn  0.95644725  0.46614031  0.04615120     1.49930
C1501       C  0.96620204  0.39523044  0.02599807     1.13590
O1502       O  0.06097344  0.46683146  0.99514625    -0.99920
O1503       O  0.89366816  0.55017048  0.99748816    -0.89580
C1504       C  0.07991615  0.48264388  0.01073864     1.24870
O1505       O  0.96174286  0.51150455  0.05625485    -1.00310
O1506       O  0.91098998  0.55676958  0.94554779    -0.87710
O1507       O  0.94664356  0.41912127  0.03010362    -0.87320
O1508       O  0.04387202  0.45996780  0.89831366    -0.87340
Mn1509     Mn  0.96045354  0.56578527  0.95358415     1.47860
O1510       O  0.91838392  0.46379675  0.97407034    -0.75810
C1511       C  0.00679382  0.41552233  0.95108444     1.17920
O1512       O  0.03369380  0.57093298  0.00101759    -0.74550
O1513       O  0.95217736  0.49127463  0.91500586    -0.74160
Mn1514     Mn  0.02968688  0.43599278  0.01255905     1.51060
O1515       O  0.98757905  0.44924312  0.08161467    -0.86510
O1516       O  0.97639147  0.53659025  0.91945504    -0.94040
O1517       O  0.99736262  0.39803764  0.02395296    -0.89050
C1518       C  0.96071005  0.51830838  0.90229359     1.15710
O1519       O  0.20470765  0.29079682  0.57327912    -0.85700
C1520       C  0.19188757  0.26565664  0.38702012     1.14340
O1521       O  0.24589265  0.26127325  0.51706312    -1.33500
O1522       O  0.14139239  0.24921481  0.44637730    -0.87180
O1523       O  0.25612035  0.28000081  0.59026971    -0.87850
O1524       O  0.22891539  0.19605955  0.56076212    -0.76670
O1525       O  0.17787441  0.27154741  0.50680591    -0.98760
C1526       C  0.20402115  0.15124111  0.47438169     1.24390
O1527       O  0.26769987  0.20452145  0.48815922    -1.33650
Mn1528     Mn  0.26558199  0.25398604  0.46678411     1.82060
O1529       O  0.19837384  0.16521524  0.50176473    -0.75740
O1530       O  0.15561944  0.19725697  0.43541513    -0.85140
C1531       C  0.26932058  0.21661849  0.40288332     1.15470
C1532       C  0.13449317  0.22004205  0.43808809     1.10200
O1533       O  0.31769028  0.26816957  0.47526697    -0.76680
O1534       O  0.21442140  0.23647305  0.46219236    -1.30380
O1535       O  0.31223773  0.24356623  0.51954251    -0.95890
C1536       C  0.28596625  0.12631526  0.51205534     1.08910
Mn1537     Mn  0.20564303  0.20128344  0.42603479     1.48570
O1538       O  0.29181757  0.14941318  0.53227079    -0.85090
Mn1539     Mn  0.28406580  0.26271803  0.55153231     1.49560
O1540       O  0.24773852  0.33464858  0.53564798    -0.88970
C1541       C  0.15977933  0.25359759  0.52146114     1.22100
C1542       C  0.27874907  0.33606825  0.53987411     1.14160
Mn1543     Mn  0.22016717  0.21397780  0.51085837     1.80970
O1544       O  0.25217673  0.20122092  0.42091197    -0.94120
Mn1545     Mn  0.21264191  0.29942552  0.52342233     1.49260
C1546       C  0.22698583  0.28992723  0.59533987     1.10680
Mn1547     Mn  0.26659965  0.16875763  0.45131471     1.49930
C1548       C  0.34033206  0.17704957  0.46001968     1.13590
O1549       O  0.27620446  0.21654676  0.55764445    -0.99920
O1550       O  0.19575568  0.23500287  0.38950676    -0.89580
C1551       C  0.25601825  0.20324191  0.57459615     1.24870
O1552       O  0.21978395  0.16688279  0.45524530    -1.00310
O1553       O  0.19130592  0.28552344  0.41104388    -0.87710
O1554       O  0.31553918  0.17383987  0.44135774    -0.87320
O1555       O  0.29717739  0.31096014  0.54107022    -0.87340
Mn1556     Mn  0.18234096  0.27628200  0.46014657     1.47860
O1557       O  0.28124633  0.24261765  0.41552346    -0.75810
C1558       C  0.33059919  0.25830479  0.50199411     1.17920
O1559       O  0.17142001  0.22599666  0.52925734    -0.74550
O1560       O  0.25963826  0.30496541  0.44964090    -0.74160
Mn1561     Mn  0.30404186  0.19793146  0.52379393     1.51060
O1562       O  0.27740338  0.13028540  0.48227644    -0.86510
O1563       O  0.21634399  0.30437525  0.47693703    -0.94040
O1564       O  0.33934884  0.18419037  0.49030628    -0.89050
C1565       C  0.23490052  0.32044553  0.46076891     1.15710
O1566       O  0.44590237  0.31790831  0.19220716    -0.85700
C1567       C  0.43978649  0.13386630  0.21865419     1.14340
O1568       O  0.49159601  0.26624022  0.21459041    -1.33500
O1569       O  0.39185309  0.19217512  0.23696763    -0.87180
O1570       O  0.49724743  0.33813482  0.19722428    -0.87850
O1571       O  0.47934587  0.31275889  0.28044436    -0.76670
O1572       O  0.42225175  0.25149190  0.20818454    -0.98760
C1573       C  0.46303525  0.22357086  0.32803882     1.24390
O1574       O  0.51956915  0.23982802  0.26969948    -1.33650
Mn1575     Mn  0.51408037  0.21811125  0.21965143     1.82050
O1576       O  0.45194089  0.24996069  0.31507449    -0.75740
O1577       O  0.41272121  0.18602312  0.28788144    -0.85140
C1578       C  0.52392930  0.15411367  0.25716590     1.15470
C1579       C  0.38897074  0.18709123  0.26754172     1.10200
O1580       O  0.56604645  0.22954537  0.20317931    -0.76680
O1581       O  0.46478197  0.21142967  0.24137624    -1.30380
O1582       O  0.56119565  0.27280592  0.22941992    -0.95890
C1583       C  0.54132699  0.26568467  0.34781544     1.08910
Mn1584     Mn  0.46180924  0.17646354  0.27888397     1.48570
O1585       O  0.54184715  0.28633554  0.32440959    -0.85090
Mn1586     Mn  0.52879954  0.30170670  0.21074534     1.49560
O1587       O  0.48586776  0.28483390  0.14263615    -0.88970
C1588       C  0.40366436  0.26697893  0.22443049     1.22100
C1589       C  0.51632860  0.29033442  0.13845805     1.14160
Mn1590     Mn  0.46929361  0.26080849  0.26344303     1.80970
O1591       O  0.50864842  0.17119719  0.27536130    -0.94120
Mn1592     Mn  0.45428508  0.26996869  0.17924524     1.49260
C1593       C  0.46648374  0.34122455  0.19399513     1.10680
Mn1594     Mn  0.52536949  0.20352988  0.30574659     1.49930
C1595       C  0.59728072  0.21865700  0.29997930     1.13590
O1596       O  0.52436544  0.30813387  0.25689192    -0.99920
O1597       O  0.44743159  0.13848784  0.24858196    -0.89580
C1598       C  0.50670573  0.32605382  0.27169127     1.24870
O1599       O  0.47896345  0.20742911  0.30964815    -1.00310
O1600       O  0.43897503  0.15636815  0.19696220    -0.87710
O1601       O  0.57570631  0.19601902  0.29818169    -0.87320
O1602       O  0.53754417  0.29110073  0.16155543    -0.87340
Mn1603     Mn  0.42858115  0.20557125  0.20474005     1.47860
O1604       O  0.53191615  0.16739522  0.22974413    -0.75810
C1605       C  0.57950676  0.25579861  0.21431400     1.17920
O1606       O  0.41673944  0.27730709  0.25147024    -0.74550
O1607       O  0.50318267  0.20173112  0.16697813    -0.74160
Mn1608     Mn  0.55414398  0.27741706  0.27563131     1.51060
O1609       O  0.53748446  0.23514879  0.34390911    -0.86510
O1610       O  0.45739408  0.22381400  0.17178289    -0.94040
O1611       O  0.59170146  0.24807942  0.29211000    -0.89050
C1612       C  0.47548155  0.20980988  0.15363599     1.15710
O1613       O  0.17262190  0.43098561  0.30370056    -0.85700
C1614       C  0.21940223  0.44776237  0.12492250     1.14340
O1615       O  0.21053858  0.47860825  0.25984650    -1.33500
O1616       O  0.24362150  0.38810557  0.18662728    -0.87180
O1617       O  0.20308624  0.46656597  0.33273520    -0.87850
O1618       O  0.27993921  0.46305684  0.30406216    -0.76670
O1619       O  0.20526980  0.41419304  0.24187208    -0.98760
C1620       C  0.32364304  0.45348177  0.21694341     1.24390
O1621       O  0.26588085  0.51106374  0.23879916    -1.33650
Mn1622     Mn  0.21788302  0.50609659  0.21397579     1.82050
O1623       O  0.31032289  0.44151421  0.24240895    -0.75740
O1624       O  0.28547727  0.41649524  0.16437449    -0.85140
C1625       C  0.25779094  0.52909939  0.15596382     1.15470
C1626       C  0.27149269  0.39011505  0.17274955     1.10200
O1627       O  0.19640882  0.55127452  0.22842776    -0.76680
O1628       O  0.24103713  0.45975289  0.20333866    -1.30380
O1629       O  0.21751783  0.54480226  0.27566962    -0.95890
C1630       C  0.34025159  0.53238840  0.27290274     1.08910
Mn1631     Mn  0.27749414  0.46540514  0.16732503     1.48570
O1632       O  0.31464931  0.54241176  0.28761745    -0.85090
Mn1633     Mn  0.20805729  0.50659513  0.30211185     1.49560
O1634       O  0.13447023  0.47765672  0.26427160    -0.88970
C1635       C  0.22181711  0.39641381  0.25836213     1.22100
C1636       C  0.13438993  0.50202085  0.28353479     1.14160
Mn1637     Mn  0.26055130  0.45915228  0.25354727     1.80970
O1638       O  0.27593483  0.51169351  0.17110107    -0.94120
Mn1639     Mn  0.17211155  0.44441123  0.25545367     1.49260
C1640       C  0.18640817  0.44046114  0.32994049     1.10680
Mn1641     Mn  0.30523699  0.51924721  0.20730479     1.49930
C1642       C  0.28590360  0.59071103  0.22558115     1.13590
O1643       O  0.25455809  0.50690071  0.30445868    -0.99920
O1644       O  0.24599073  0.46333609  0.12827947    -0.89580
C1645       C  0.27249017  0.48898303  0.31927489     1.24870
O1646       O  0.30739039  0.47302633  0.20238232    -1.00310
O1647       O  0.20390576  0.43309344  0.14757497    -0.87710
O1648       O  0.30048615  0.56963305  0.20776602    -0.87320
O1649       O  0.15937400  0.51209758  0.29893317    -0.87340
Mn1650     Mn  0.20747381  0.42227354  0.19577966     1.47860
O1651       O  0.22915003  0.53216462  0.16797025    -0.75810
C1652       C  0.20130014  0.56171624  0.25717658     1.17920
O1653       O  0.24951676  0.40802855  0.26726503    -0.74550
O1654       O  0.16936263  0.49810788  0.19113979    -0.74160
Mn1655     Mn  0.26458811  0.54382085  0.27842296     1.51060
O1656       O  0.34036183  0.52086759  0.24400651    -0.86510
O1657       O  0.17260582  0.45081913  0.20937762    -0.94040
O1658       O  0.26956269  0.58467661  0.25105730    -0.89050
C1659       C  0.15608345  0.47036036  0.19507903     1.15710
O1660       O  0.44903444  0.41398579  0.55610670    -0.85700
C1661       C  0.45538336  0.59424052  0.51253930     1.14340
O1662       O  0.50005034  0.46099376  0.52857921    -1.33500
O1663       O  0.40472744  0.53342219  0.49240870    -0.87180
O1664       O  0.49702814  0.38869829  0.54562009    -0.87850
O1665       O  0.49031643  0.41346942  0.46277112    -0.76670
O1666       O  0.43159747  0.47723905  0.52717925    -0.98760
C1667       C  0.47963965  0.49485507  0.41104091     1.24390
O1668       O  0.53277912  0.48314615  0.47409142    -1.33650
Mn1669     Mn  0.52454292  0.50766454  0.52002537     1.82050
O1670       O  0.46934026  0.47021478  0.42669028    -0.75740
O1671       O  0.42852385  0.53732592  0.44282181    -0.85140
C1672       C  0.53619370  0.56978420  0.48452132     1.15470
C1673       C  0.40340939  0.53479758  0.46117090     1.10200
O1674       O  0.57179056  0.49821835  0.54197038    -0.76680
O1675       O  0.47732349  0.51478304  0.49505459    -1.30380
O1676       O  0.56996189  0.45037433  0.52284676    -0.95890
C1677       C  0.55957842  0.45410847  0.40180629     1.08910
Mn1678     Mn  0.47674674  0.54758513  0.45544793     1.48570
O1679       O  0.56079842  0.43449673  0.42601976    -0.85090
Mn1680     Mn  0.53339854  0.42311490  0.53696018     1.49560
O1681       O  0.48855633  0.45117359  0.60197094    -0.88970
C1682       C  0.41676631  0.46085268  0.50706149     1.22100
C1683       C  0.51663560  0.43935749  0.60839762     1.14160
Mn1684     Mn  0.48292798  0.46435158  0.47761262     1.80970
O1685       O  0.52264750  0.55296616  0.46423583    -0.94120
Mn1686     Mn  0.46060564  0.46282646  0.56184964     1.49260
C1687       C  0.46641300  0.38857873  0.55166441     1.10680
Mn1688     Mn  0.54102425  0.51807114  0.43836942     1.49930
C1689       C  0.61071741  0.50449525  0.46078523     1.13590
O1690       O  0.53283258  0.41739598  0.49055904    -0.99920
O1691       O  0.46217738  0.58763585  0.48283544    -0.89580
C1692       C  0.51588969  0.40009552  0.47400815     1.24870
O1693       O  0.49514641  0.51493599  0.42653878    -1.00310
O1694       O  0.45037502  0.57270742  0.53443610    -0.87710
O1695       O  0.58782602  0.52498811  0.45572662    -0.87320
O1696       O  0.53819906  0.43186842  0.58701999    -0.87340
Mn1697     Mn  0.43937780  0.52354848  0.52863978     1.47860
O1698       O  0.54461826  0.55568804  0.51073811    -0.75810
C1699       C  0.58537999  0.47083031  0.53767401     1.17920
O1700       O  0.43296191  0.44933261  0.48335733    -0.74550
O1701       O  0.51521135  0.52941568  0.56569277    -0.74160
Mn1702     Mn  0.56711923  0.44518537  0.47571903     1.51060
O1703       O  0.55634713  0.48472470  0.40461901    -0.86510
O1704       O  0.46681500  0.50991987  0.56562922    -0.94040
O1705       O  0.60690368  0.47415656  0.46542197    -0.89050
C1706       C  0.48812546  0.52565500  0.57977851     1.15710
C1707       C  0.23814494  0.96506676  0.21728892     0.04770
C1708       C  0.25319908  0.99305458  0.23332141     0.04770
C1709       C  0.23846487  0.00753733  0.26260458     0.04770
C1710       C  0.21058795  0.99239588  0.27829410     0.04770
C1711       C  0.19523750  0.96421082  0.26260342     0.04770
C1712       C  0.20974373  0.94959813  0.23281003     0.04770
C1713       C  0.91378965  0.67616699  0.47971094    -0.13950
C1714       C  0.88996870  0.68725330  0.45922888    -0.29130
H1715       H  0.90879146  0.67160965  0.50566545     0.15070
H1716       H  0.89380781  0.68815511  0.43267589     0.15650
C1717       C  0.95114386  0.70747764  0.36883151    -0.13950
C1718       C  0.96769765  0.67881829  0.37737383    -0.29130
H1719       H  0.93724254  0.72157919  0.38666244     0.15070
H1720       H  0.98081859  0.66548365  0.35825976     0.15650
C1721       C  0.77362748  0.68245722  0.36413297    -0.13950
C1722       C  0.78461891  0.71369587  0.37299933    -0.29130
H1723       H  0.76481580  0.66627731  0.38347645     0.15070
H1724       H  0.79516252  0.73018333  0.35486181     0.15650
C1725       C  0.81360112  0.69237648  0.25976387    -0.13950
C1726       C  0.83912431  0.69565235  0.28108562    -0.29130
H1727       H  0.81735356  0.69361043  0.23323135     0.15070
H1728       H  0.83597695  0.69093166  0.30731937     0.15650
C1729       C  0.91440611  0.65977695  0.01669541    -0.13950
C1730       C  0.93280638  0.63698271  0.03279073    -0.29130
H1731       H  0.90677880  0.65559053  0.99132911     0.15070
H1732       H  0.93727988  0.63949277  0.05911589     0.15650
C1733       C  0.92380777  0.72926459  0.11576905    -0.13950
C1734       C  0.95177716  0.71352373  0.12678574    -0.29130
H1735       H  0.91206381  0.74712469  0.13182870     0.15070
H1736       H  0.96448121  0.69519501  0.11229300     0.15650
C1737       C  0.93795777  0.51696440  0.11917007    -0.13950
C1738       C  0.96694275  0.53212532  0.10843359    -0.29130
H1739       H  0.93047087  0.49416870  0.10739986     0.15070
H1740       H  0.97661483  0.55349838  0.12117889     0.15650
C1741       C  0.89618701  0.61616825  0.16825277    -0.13950
C1742       C  0.91606695  0.61592073  0.19466420    -0.29130
H1743       H  0.88510515  0.63834316  0.15832918     0.15070
H1744       H  0.92477068  0.59292753  0.20524251     0.15650
C1745       C  0.67345047  0.84638905  0.26613745    -0.13950
C1746       C  0.68809134  0.86678019  0.28779036    -0.29130
H1747       H  0.66509032  0.85503058  0.24223168     0.15070
H1748       H  0.69352023  0.85900359  0.31288531     0.15650
C1749       C  0.70330966  0.75588539  0.33260216    -0.13950
C1750       C  0.70166593  0.77757475  0.35767611    -0.29130
H1751       H  0.70916323  0.73021212  0.33684259     0.15070
H1752       H  0.69365101  0.80268967  0.35337700     0.15650
C1753       C  0.69150961  0.96629912  0.38190961    -0.13950
C1754       C  0.72257781  0.96120587  0.36968975    -0.29130
H1755       H  0.67519038  0.98304529  0.36888283     0.15070
H1756       H  0.74047925  0.94581723  0.38204606     0.15650
C1757       C  0.69395642  0.87191687  0.46131923    -0.13950
C1758       C  0.72488363  0.86054865  0.45250010    -0.29130
H1759       H  0.67933519  0.85722065  0.47825408     0.15070
H1760       H  0.74100442  0.87407579  0.43616100     0.15650
C1761       C  0.59692381  0.98353497  0.05514828    -0.13950
C1762       C  0.61114650  0.95521971  0.04345252    -0.29130
H1763       H  0.60881733  0.99956146  0.07283055     0.15070
H1764       H  0.59766785  0.94056714  0.02547427     0.15650
C1765       C  0.70769479  0.95674499  0.11985197    -0.13950
C1766       C  0.69912982  0.98560162  0.13416635    -0.29130
H1767       H  0.72620089  0.94146976  0.13177815     0.15070
H1768       H  0.68179760  0.00261929  0.12335562     0.15650
C1769       C  0.50451390  0.90536158  0.15557056    -0.13950
C1770       C  0.50858161  0.93777903  0.14978855    -0.29130
H1771       H  0.48725104  0.89124464  0.14060865     0.15070
H1772       H  0.52498058  0.95298851  0.16446903     0.15650
C1773       C  0.61315577  0.90178262  0.20716443    -0.13950
C1774       C  0.61062525  0.93299522  0.21762736    -0.29130
H1775       H  0.63686487  0.88938827  0.20646857     0.15070
H1776       H  0.58685208  0.94461766  0.22179358     0.15650
C1777       C  0.73760914  0.83582996  0.64549005    -0.13950
C1778       C  0.72132658  0.80898723  0.63378281    -0.29130
H1779       H  0.76132462  0.84279764  0.63508117     0.15070
H1780       H  0.69809925  0.80073783  0.64417309     0.15650
C1781       C  0.63775595  0.86281593  0.70143604    -0.13950
C1782       C  0.63402445  0.83018830  0.70438942    -0.29130
H1783       H  0.61777344  0.87966713  0.70698262     0.15070
H1784       H  0.65475081  0.81339481  0.70221876     0.15650
C1785       C  0.62282075  0.79994066  0.52551836    -0.13950
C1786       C  0.63305239  0.76900814  0.53530112    -0.29130
H1787       H  0.63812182  0.81377979  0.50845784     0.15070
H1788       H  0.61792662  0.75325495  0.55060492     0.15650
C1789       C  0.54745465  0.77871630  0.62739868    -0.13950
C1790       C  0.53930928  0.80856549  0.61419118    -0.29130
H1791       H  0.56279118  0.76099508  0.61483280     0.15070
H1792       H  0.52278411  0.82467947  0.62771055     0.15650
C1793       C  0.27168193  0.69738808  0.82962652    -0.13950
C1794       C  0.29000791  0.69927002  0.85716856    -0.29130
H1795       H  0.24488842  0.69613067  0.83067244     0.15070
H1796       H  0.31678975  0.69738408  0.85594415     0.15650
C1797       C  0.37149789  0.70776531  0.76203255    -0.13950
C1798       C  0.38430929  0.73368160  0.77897783    -0.29130
H1799       H  0.38698710  0.69515807  0.74418433     0.15070
H1800       H  0.37022737  0.74769698  0.79672508     0.15650
C1801       C  0.37344343  0.69061685  0.96826163    -0.13950
C1802       C  0.36269148  0.72103694  0.95765996    -0.29130
H1803       H  0.35687765  0.67570737  0.98309076     0.15070
H1804       H  0.37763947  0.73657679  0.94197799     0.15650
C1805       C  0.47843412  0.69490263  0.90750624    -0.13950
C1806       C  0.46247790  0.71190126  0.88401813    -0.29130
H1807       H  0.50405451  0.68779497  0.90383097     0.15070
H1808       H  0.43587099  0.71522333  0.88515780     0.15650
C1809       C  0.23753119  0.58566471  0.92079285    -0.13950
C1810       C  0.21407146  0.60663338  0.93129970    -0.29130
H1811       H  0.26349120  0.59254736  0.92098945     0.15070
H1812       H  0.18800695  0.60129370  0.92756517     0.15650
C1813       C  0.14552834  0.51837058  0.89530384    -0.13950
C1814       C  0.12869974  0.53756149  0.91674411    -0.29130
H1815       H  0.13421106  0.49647743  0.88487398     0.15070
H1816       H  0.13831342  0.56132157  0.92429062     0.15650
C1817       C  0.11508734  0.70956137  0.92932899    -0.13950
C1818       C  0.12467373  0.70106593  0.96100756    -0.29130
H1819       H  0.13104546  0.72523690  0.91463857     0.15070
H1820       H  0.10893589  0.68710448  0.97740798     0.15650
C1821       C  0.02456978  0.62932298  0.93207749    -0.13950
C1822       C  0.03373380  0.61892469  0.96337269    -0.29130
H1823       H  0.00695323  0.61483925  0.91798055     0.15070
H1824       H  0.04972386  0.63329847  0.97924503     0.15650
C1825       C  0.80713771  0.71104817  0.62585193    -0.13950
C1826       C  0.77594141  0.70354978  0.61457040    -0.29130
H1827       H  0.82320932  0.72612861  0.61064654     0.15070
H1828       H  0.75821525  0.69001432  0.62918862     0.15650
C1829       C  0.80022163  0.62925259  0.71601394    -0.13950
C1830       C  0.76860014  0.61891552  0.70696432    -0.29130
H1831       H  0.81390124  0.61463809  0.73375047     0.15070
H1832       H  0.75308965  0.63324593  0.69068690     0.15650
C1833       C  0.82606263  0.58505439  0.50942331    -0.13950
C1834       C  0.81267214  0.60603071  0.53132485    -0.29130
H1835       H  0.83050264  0.59230155  0.48398056     0.15070
H1836       H  0.81181836  0.60025204  0.55751524     0.15650
C1837       C  0.80755843  0.52865129  0.61423416    -0.13950
C1838       C  0.82577952  0.50662682  0.59723586    -0.29130
H1839       H  0.80483833  0.55373178  0.60556706     0.15070
H1840       H  0.83186639  0.48295124  0.60798164     0.15650
C1841       C  0.71806463  0.65906252  0.82834560    -0.13950
C1842       C  0.69883142  0.63833421  0.81055592    -0.29130
H1843       H  0.74275174  0.65193070  0.83601455     0.15070
H1844       H  0.67296833  0.64393405  0.80609814     0.15650
C1845       C  0.63304887  0.74133277  0.80913684    -0.13950
C1846       C  0.62310358  0.72680885  0.77989414    -0.29130
H1847       H  0.61751388  0.76021599  0.81989828     0.15070
H1848       H  0.63721091  0.70787929  0.76770657     0.15650
C1849       C  0.61723538  0.53705611  0.77221862    -0.13950
C1850       C  0.60558787  0.52259444  0.80078826    -0.29130
H1851       H  0.60560817  0.55880334  0.76209124     0.15070
H1852       H  0.61609286  0.49936864  0.80871166     0.15650
C1853       C  0.56431609  0.62695024  0.84098275    -0.13950
C1854       C  0.55191508  0.63242452  0.81088695    -0.29130
H1855       H  0.56379305  0.64573991  0.86005590     0.15070
H1856       H  0.54810676  0.61246784  0.79340574     0.15650
C1857       C  0.67814462  0.47586964  0.87919149    -0.13950
C1858       C  0.70986020  0.46740746  0.87028169    -0.29130
H1859       H  0.66378163  0.49205180  0.86343393     0.15070
H1860       H  0.72587424  0.45331372  0.88636563     0.15650
C1861       C  0.67307501  0.38197843  0.95429087    -0.13950
C1862       C  0.70449019  0.37204834  0.94544094    -0.29130
H1863       H  0.65771805  0.36575077  0.96901152     0.15070
H1864       H  0.72170139  0.38797586  0.93273340     0.15650
C1865       C  0.66656223  0.36350039  0.78219659    -0.13950
C1866       C  0.64909056  0.34685585  0.75870045    -0.29130
H1867       H  0.67017269  0.35331503  0.80666143     0.15070
H1868       H  0.64264214  0.35854794  0.73546914     0.15650
C1869       C  0.66768703  0.25716343  0.82732719    -0.13950
C1870       C  0.67556142  0.28180867  0.84818390    -0.29130
H1871       H  0.66854291  0.23164154  0.83509228     0.15070
H1872       H  0.67065097  0.30724295  0.84195940     0.15650
C1873       C  0.71765361  0.12114287  0.94770173    -0.13950
C1874       C  0.69866247  0.13647433  0.97043319    -0.29130
H1875       H  0.73906007  0.13385963  0.93771702     0.15070
H1876       H  0.67693905  0.12523450  0.98119121     0.15650
C1877       C  0.61851739  0.04255969  0.95550980    -0.13950
C1878       C  0.64150858  0.02647829  0.93744679    -0.29130
H1879       H  0.62140313  0.06854902  0.96069485     0.15070
H1880       H  0.63652778  0.00170098  0.92880475     0.15650
C1881       C  0.60106869  0.20609875  0.93582169    -0.13950
C1882       C  0.59682259  0.18482927  0.91120640    -0.29130
H1883       H  0.58035571  0.21413806  0.95085952     0.15070
H1884       H  0.61640560  0.17973339  0.89358689     0.15650
C1885       C  0.49747993  0.12486403  0.94777810    -0.13950
C1886       C  0.50994525  0.11650067  0.97843096    -0.29130
H1887       H  0.47697959  0.11064573  0.93790264     0.15070
H1888       H  0.52875419  0.13112477  0.99056583     0.15650
C1889       C  0.46180125  0.87784594  0.68022735    -0.13950
C1890       C  0.45368540  0.86947279  0.71195236    -0.29130
H1891       H  0.47822905  0.86224994  0.66598919     0.15070
H1892       H  0.43909077  0.88511964  0.72785722     0.15650
C1893       C  0.37648836  0.96321351  0.67987480    -0.13950
C1894       C  0.36517915  0.95394055  0.71113615    -0.29130
H1895       H  0.36163965  0.98006249  0.66540138     0.15070
H1896       H  0.37988993  0.93876340  0.72740471     0.15650
C1897       C  0.34589249  0.75226122  0.66331101    -0.13950
C1898       C  0.36404650  0.77670599  0.67681094    -0.29130
H1899       H  0.35607222  0.72776243  0.66041688     0.15070
H1900       H  0.35569006  0.80201725  0.67606236     0.15650
C1901       C  0.26100783  0.83287124  0.65680421    -0.13950
C1902       C  0.28278181  0.85312362  0.67217258    -0.29130
H1903       H  0.23602610  0.84094302  0.65132341     0.15070
H1904       H  0.30869169  0.84661323  0.67442968     0.15650
C1905       C  0.11668205  0.92967080  0.69939022    -0.13950
C1906       C  0.12656766  0.96078917  0.68986664    -0.29130
H1907       H  0.13289904  0.91505655  0.71487765     0.15070
H1908       H  0.11074413  0.97713863  0.67599307     0.15650
C1909       C  0.03068770  0.96700195  0.61543069    -0.13950
C1910       C  0.02145120  0.93560900  0.62500889    -0.29130
H1911       H  0.04722863  0.98193790  0.63020678     0.15070
H1912       H  0.00317847  0.92237082  0.61053412     0.15650
C1913       C  0.22492490  0.89423869  0.58927048    -0.13950
C1914       C  0.21766880  0.92562804  0.59650251    -0.29130
H1915       H  0.24224951  0.88042325  0.60433423     0.15070
H1916       H  0.20108232  0.94046796  0.58166693     0.15650
C1917       C  0.13131102  0.89743455  0.51476058    -0.13950
C1918       C  0.12224370  0.92633787  0.52832947    -0.29130
H1919       H  0.11633315  0.88661388  0.49527129     0.15070
H1920       H  0.13614872  0.93907981  0.54724530     0.15650
C1921       C  0.86792692  0.33410870  0.66572215    -0.13950
C1922       C  0.87101085  0.30769444  0.68508649    -0.29130
H1923       H  0.88855190  0.34482668  0.65237631     0.15070
H1924       H  0.84933168  0.29589918  0.69574324     0.15650
C1925       C  0.77499462  0.38129952  0.73484955    -0.13950
C1926       C  0.76119667  0.36738560  0.70735316    -0.29130
H1927       H  0.79733878  0.37137636  0.74575618     0.15070
H1928       H  0.73721476  0.37597258  0.69892912     0.15650
C1929       C  0.98202589  0.39016468  0.68468958    -0.13950
C1930       C  0.96834740  0.37727608  0.71258864    -0.29130
H1931       H  0.00170246  0.37670666  0.67249221     0.15070
H1932       H  0.94882335  0.38933665  0.72612216     0.15650
C1933       C  0.89784603  0.47753477  0.67346992    -0.13950
C1934       C  0.87710784  0.46057257  0.69336974    -0.29130
H1935       H  0.89062152  0.50149185  0.66417966     0.15070
H1936       H  0.88209977  0.43510229  0.69942421     0.15650
C1937       C  0.94797886  0.23511459  0.57431689    -0.13950
C1938       C  0.95367987  0.21755638  0.60181754    -0.29130
H1939       H  0.94744063  0.26176909  0.57514964     0.15070
H1940       H  0.95073969  0.19099396  0.60169932     0.15650
C1941       C  0.93349009  0.12663844  0.53319070    -0.13950
C1942       C  0.96576621  0.11687137  0.53927187    -0.29130
H1943       H  0.91608366  0.10850169  0.52398900     0.15070
H1944       H  0.98358672  0.13337348  0.55041814     0.15650
C1945       C  0.95013138  0.12624043  0.72389949    -0.13950
C1946       C  0.97544665  0.13849789  0.70557552    -0.29130
H1947       H  0.93795328  0.14209550  0.74170073     0.15070
H1948       H  0.98846617  0.12393120  0.68741243     0.15650
C1949       C  0.94376904  0.02282761  0.66382612    -0.13950
C1950       C  0.94679691  0.04066185  0.63621100    -0.29130
H1951       H  0.94110682  0.99630425  0.66279393     0.15070
H1952       H  0.94611896  0.06734419  0.63736864     0.15650
C1953       C  0.99926803  0.81951342  0.09339071    -0.13950
C1954       C  0.02054348  0.80583828  0.11482868    -0.29130
H1955       H  0.97397589  0.82498840  0.10046802     0.15070
H1956       H  0.04667747  0.80375289  0.10904837     0.15650
C1957       C  0.10098060  0.79704644  0.02634640    -0.13950
C1958       C  0.08067720  0.81325383  0.00583385    -0.29130
H1959       H  0.09526742  0.79458162  0.05244579     0.15070
H1960       H  0.08853465  0.81940123  0.98091614     0.15650
C1961       C  0.19709095  0.91763494  0.21899879    -0.10790
C1962       C  0.18860368  0.89055428  0.20760877    -0.12350
C1963       C  0.11194037  0.79211400  0.21234051    -0.13950
C1964       C  0.09897253  0.76224323  0.20332510    -0.29130
H1965       H  0.09901899  0.80637253  0.23094027     0.15070
H1966       H  0.11077575  0.74645270  0.18543876     0.15650
C1967       C  0.19913400  0.79646152  0.12414059    -0.13950
C1968       C  0.19248305  0.76595491  0.11091725    -0.29130
H1969       H  0.21610429  0.81245426  0.11099164     0.15070
H1970       H  0.17651148  0.74849119  0.12312878     0.15650
C1971       C  0.13607114  0.94466836  0.28798632    -0.10790
C1972       C  0.16323782  0.95217160  0.27631637    -0.12350
C1973       C  0.03918156  0.95908557  0.36785781    -0.13950
C1974       C  0.00790465  0.95243485  0.37957700    -0.29130
H1975       H  0.05480748  0.97601120  0.38155861     0.15070
H1976       H  0.99058994  0.93711852  0.36620810     0.15650
C1977       C  0.04075495  0.86541688  0.28879750    -0.13950
C1978       C  0.01033829  0.85374203  0.29765597    -0.29130
H1979       H  0.05593339  0.85094039  0.27216964     0.15070
H1980       H  0.99346908  0.86724522  0.31320207     0.15650
C1981       C  0.06403609  0.83564103  0.48211475    -0.13950
C1982       C  0.04561599  0.85518821  0.46226155    -0.29130
H1983       H  0.07340360  0.84495201  0.50546786     0.15070
H1984       H  0.03920843  0.84729921  0.43743163     0.15650
C1985       C  0.04053160  0.74226873  0.41193948    -0.13950
C1986       C  0.03516262  0.76412324  0.38776123    -0.29130
H1987       H  0.03941772  0.71606280  0.40702001     0.15070
H1988       H  0.03939059  0.79016630  0.39203611     0.15650
C1989       C  0.31748860  0.05102843  0.97170313    -0.13950
C1990       C  0.34198459  0.03382473  0.95765863    -0.29130
H1991       H  0.31996747  0.05962689  0.99701825     0.15070
H1992       H  0.34148988  0.02806352  0.93145740     0.15650
C1993       C  0.26724548  0.05435996  0.86148074    -0.13950
C1994       C  0.27723833  0.02302161  0.85285829    -0.29130
H1995       H  0.25372638  0.06876273  0.84343261     0.15070
H1996       H  0.29224370  0.00824298  0.86922851     0.15650
C1997       C  0.46709051  0.03924458  0.87331350    -0.13950
C1998       C  0.45422424  0.01009469  0.88493604    -0.29130
H1999       H  0.48745310  0.05075776  0.88648608     0.15070
H2000       H  0.43603919  0.99635402  0.87088080     0.15650
C2001       C  0.36970239  0.04885186  0.78528512    -0.13950
C2002       C  0.36665424  0.06213274  0.81545118    -0.29130
H2003       H  0.39370911  0.04625376  0.77349986     0.15070
H2004       H  0.34326707  0.06570520  0.82807344     0.15650
C2005       C  0.86044466  0.28388229  0.04847769    -0.13950
C2006       C  0.84827295  0.29739961  0.02024658    -0.29130
H2007       H  0.84472636  0.26810019  0.06335639     0.15070
H2008       H  0.86264052  0.31414551  0.00522186     0.15650
C2009       C  0.96822704  0.33722524  0.03881284    -0.13950
C2010       C  0.95175182  0.36274914  0.02600385    -0.29130
H2011       H  0.99426051  0.33963405  0.04503789     0.15070
H2012       H  0.92508095  0.36169502  0.02289341     0.15650
C2013       C  0.79202186  0.38772333  0.07154177    -0.13950
C2014       C  0.77183495  0.38765954  0.04544116    -0.29130
H2015       H  0.79547480  0.36660309  0.08760888     0.15070
H2016       H  0.76614794  0.40986289  0.03168203     0.15650
C2017       C  0.86390823  0.47984736  0.04681958    -0.13950
C2018       C  0.87216631  0.46774448  0.01556122    -0.29130
H2019       H  0.87977251  0.49827613  0.05803485     0.15070
H2020       H  0.85606844  0.45115274  0.00220079     0.15650
C2021       C  0.85823241  0.05755921  0.48018718    -0.13950
C2022       C  0.86738823  0.02815066  0.46557989    -0.29130
H2023       H  0.87590095  0.06986261  0.49616320     0.15070
H2024       H  0.85110152  0.01451559  0.44941762     0.15650
C2025       C  0.76182013  0.07138493  0.41163823    -0.13950
C2026       C  0.78197595  0.06137988  0.38723553    -0.29130
H2027       H  0.73575530  0.07607026  0.40726028     0.15070
H2028       H  0.80858465  0.06025040  0.39080816     0.15650
C2029       C  0.95415483  0.08660154  0.35049561    -0.13950
C2030       C  0.95143009  0.05553532  0.36127851    -0.29130
H2031       H  0.96689940  0.10488621  0.36532943     0.15070
H2032       H  0.94146629  0.03571955  0.34637829     0.15650
C2033       C  0.86972505  0.06443307  0.26682013    -0.13950
C2034       C  0.86189808  0.03468680  0.28080406    -0.29130
H2035       H  0.85316563  0.07544875  0.24883507     0.15070
H2036       H  0.87858318  0.02147659  0.29694398     0.15650
C2037       C  0.07276847  0.49810149  0.82550946    -0.13950
C2038       C  0.05585386  0.47551995  0.84357311    -0.29130
H2039       H  0.07729983  0.52248115  0.83543423     0.15070
H2040       H  0.05466724  0.45003444  0.83586820     0.15650
C2041       C  0.08412214  0.41188287  0.74646933    -0.13950
C2042       C  0.07034096  0.39241078  0.76971225    -0.29130
H2043       H  0.08951362  0.40264425  0.72187603     0.15070
H2044       H  0.06821825  0.40030475  0.79524895     0.15650
C2045       C  0.05036268  0.37046781  0.95335539    -0.13950
C2046       C  0.01919566  0.38149964  0.94288279    -0.29130
H2047       H  0.06419475  0.38551739  0.97062589     0.15070
H2048       H  0.00330787  0.36647037  0.92753666     0.15650
C2049       C  0.05509906  0.28615220  0.86687552    -0.13950
C2050       C  0.02482322  0.29522558  0.85551165    -0.29130
H2051       H  0.07083972  0.27043349  0.85198771     0.15070
H2052       H  0.00730536  0.30914490  0.87001684     0.15650
C2053       C  0.80269325  0.01603934  0.08863358    -0.13950
C2054       C  0.79513513  0.03993568  0.11034701    -0.29130
H2055       H  0.80534680  0.99061759  0.09629151     0.15070
H2056       H  0.79575405  0.06565882  0.10325756     0.15650
C2057       C  0.79817818  0.09607410  0.00291017    -0.13950
C2058       C  0.79128235  0.11853711  0.02633933    -0.29130
H2059       H  0.79909493  0.10255235  0.97689654     0.15070
H2060       H  0.79354756  0.11267107  0.05243152     0.15650
C2061       C  0.79132041  0.13862559  0.21216086    -0.13950
C2062       C  0.76070869  0.12518606  0.20684076    -0.29130
H2063       H  0.80843254  0.12592233  0.22841124     0.15070
H2064       H  0.74206874  0.13719320  0.19201681     0.15650
C2065       C  0.78405972  0.21970721  0.11969964    -0.13950
C2066       C  0.75354636  0.21000170  0.10814724    -0.29130
H2067       H  0.79819869  0.23721547  0.10521689     0.15070
H2068       H  0.73766281  0.19337945  0.12161597     0.15650
C2069       C  0.45280490  0.85864587  0.07310451    -0.13950
C2070       C  0.47719815  0.83911193  0.08474430    -0.29130
H2071       H  0.42736055  0.85021016  0.07191154     0.15070
H2072       H  0.50190669  0.84861520  0.08924486     0.15650
C2073       C  0.39659882  0.75460973  0.07679642    -0.13950
C2074       C  0.37648355  0.77820467  0.06429809    -0.29130
H2075       H  0.38830892  0.72930396  0.07871230     0.15070
H2076       H  0.38313983  0.80400722  0.06552634     0.15650
C2077       C  0.26337802  0.94545794  0.15668723    -0.10790
C2078       C  0.25171326  0.95328699  0.18422801    -0.12350
C2079       C  0.34963037  0.95617592  0.06237791    -0.13950
C2080       C  0.36146380  0.94839308  0.03114976    -0.29130
H2081       H  0.36348086  0.97323848  0.07767881     0.15070
H2082       H  0.34787739  0.93292342  0.01414628     0.15650
C2083       C  0.26595295  0.86962052  0.05524832    -0.13950
C2084       C  0.27635387  0.86172475  0.02375406    -0.29130
H2085       H  0.24939705  0.85312936  0.06829944     0.15070
H2086       H  0.29117135  0.87820951  0.00890127     0.15650
C2087       C  0.07613484  0.00307879  0.79243858    -0.13950
C2088       C  0.09937479  0.02352433  0.78059341    -0.29130
H2089       H  0.08183613  0.97738187  0.79680003     0.15070
H2090       H  0.09515392  0.04984385  0.77978446     0.15650
C2091       C  0.00437703  0.09757815  0.80279453    -0.13950
C2092       C  0.02911188  0.11848696  0.79541611    -0.29130
H2093       H  0.97905355  0.10603793  0.80525530     0.15070
H2094       H  0.05473622  0.11058121  0.79613627     0.15650
C2095       C  0.20694929  0.12067788  0.78742921    -0.13950
C2096       C  0.19736856  0.10931783  0.75626741    -0.29130
H2097       H  0.22263600  0.10494584  0.80230375     0.15070
H2098       H  0.18279098  0.12409670  0.73956991     0.15650
C2099       C  0.11874302  0.21082683  0.75918344    -0.13950
C2100       C  0.13198831  0.21762050  0.78935125    -0.29130
H2101       H  0.13042137  0.19484356  0.74139835     0.15070
H2102       H  0.11960308  0.23514896  0.80532454     0.15650
C2103       C  0.68090635  0.31505007  0.11966783    -0.13950
C2104       C  0.66396243  0.34322403  0.12217572    -0.29130
H2105       H  0.68626967  0.30002250  0.14123439     0.15070
H2106       H  0.66181092  0.36046695  0.10181226     0.15650
C2107       C  0.62354182  0.29953015  0.22313711    -0.13950
C2108       C  0.61281503  0.27114829  0.20669725    -0.29130
H2109       H  0.61272684  0.30529992  0.24695344     0.15070
H2110       H  0.62483469  0.26348577  0.18405757     0.15650
C2111       C  0.60030271  0.31225339  0.01309375    -0.13950
C2112       C  0.61173376  0.28324623  0.02653423    -0.29130
H2113       H  0.61613817  0.32584379  0.99633031     0.15070
H2114       H  0.59753558  0.26913032  0.04413981     0.15650
C2115       C  0.50551886  0.31189501  0.08378639    -0.13950
C2116       C  0.52685366  0.29836678  0.10542734    -0.29130
H2117       H  0.47992513  0.31643502  0.09042846     0.15070
H2118       H  0.55318617  0.29734517  0.10027428     0.15650
C2119       C  0.33137518  0.71638651  0.14277059    -0.13950
C2120       C  0.29997358  0.71092080  0.13293425    -0.29130
H2121       H  0.34831975  0.72940405  0.12659570     0.15070
H2122       H  0.28097317  0.70055905  0.14857405     0.15650
C2123       C  0.32344387  0.63340750  0.23005171    -0.13950
C2124       C  0.29341235  0.62413082  0.22023345    -0.29130
H2125       H  0.33865711  0.61664888  0.24453998     0.15070
H2126       H  0.27553894  0.63984036  0.20811476     0.15650
C2127       C  0.26684926  0.62599686  0.03159855    -0.13950
C2128       C  0.29808195  0.61587372  0.02298111    -0.29130
H2129       H  0.25027218  0.61084196  0.04601455     0.15070
H2130       H  0.31290240  0.63107969  0.00667159     0.15650
C2131       C  0.30080155  0.53290002  0.11176041    -0.13950
C2132       C  0.26988692  0.54154216  0.12353347    -0.29130
H2133       H  0.31566990  0.51582355  0.12596428     0.15070
H2134       H  0.25313007  0.55690164  0.10962297     0.15650
C2135       C  0.73248246  0.16080875  0.33003023    -0.13950
C2136       C  0.70919820  0.14146714  0.31603757    -0.29130
H2137       H  0.75773558  0.15240954  0.33339841     0.15070
H2138       H  0.68325351  0.14814657  0.31627413     0.15650
C2139       C  0.64515717  0.23553591  0.33234489    -0.13950
C2140       C  0.62950406  0.21204053  0.31440275    -0.29130
H2141       H  0.63348962  0.25903287  0.33721788     0.15070
H2142       H  0.63934012  0.18736031  0.31256782     0.15650
C2143       C  0.61225597  0.02882394  0.30515942    -0.13950
C2144       C  0.62293764  0.03850552  0.27471044    -0.29130
H2145       H  0.62804681  0.01376355  0.32069975     0.15070
H2146       H  0.60751354  0.05159130  0.25728510     0.15650
C2147       C  0.52351216  0.11051427  0.30196309    -0.13950
C2148       C  0.53256767  0.12062467  0.27019424    -0.29130
H2149       H  0.50691923  0.12588075  0.31618384     0.15070
H2150       H  0.54728191  0.10523631  0.25416741     0.15650
C2151       C  0.01481335  0.61841239  0.26716657    -0.13950
C2152       C  0.00526627  0.60718467  0.29818108    -0.29130
H2153       H  0.03208394  0.60496478  0.25195164     0.15070
H2154       H  0.98610498  0.62033030  0.31142548     0.15650
C2155       C  0.10429753  0.51947464  0.29020316    -0.13950
C2156       C  0.10537547  0.54351268  0.31271812    -0.29130
H2157       H  0.08105402  0.51089517  0.27977231     0.15070
H2158       H  0.12795173  0.55173370  0.32474643     0.15650
C2159       C  0.14379318  0.70846889  0.29447051    -0.13950
C2160       C  0.11657170  0.68972391  0.29180261    -0.29130
H2161       H  0.14224568  0.73507675  0.29536914     0.15070
H2162       H  0.11819115  0.66314866  0.29383987     0.15650
C2163       C  0.20871205  0.60819244  0.29423875    -0.13950
C2164       C  0.19274601  0.59506334  0.26785134    -0.29130
H2165       H  0.22691844  0.59354493  0.30735344     0.15070
H2166       H  0.17425544  0.60838566  0.25395714     0.15650
C2167       C  0.28028061  0.15435668  0.71858267    -0.13950
C2168       C  0.28655254  0.12952992  0.69729122    -0.29130
H2169       H  0.27248281  0.15002529  0.74386640     0.15070
H2170       H  0.29648619  0.13440959  0.67283057     0.15650
C2171       C  0.29460454  0.20941919  0.62167850    -0.13950
C2172       C  0.26507446  0.19757881  0.60966906    -0.29130
H2173       H  0.31164077  0.22158894  0.60496492     0.15070
H2174       H  0.24790115  0.18408611  0.62501868     0.15650
C2175       C  0.27711883  0.02472923  0.61279976    -0.13950
C2176       C  0.30767835  0.01163529  0.60393329    -0.29130
H2177       H  0.26284885  0.03963798  0.59591492     0.15070
H2178       H  0.32128041  0.99764179  0.62222131     0.15650
C2179       C  0.30799568  0.07187891  0.50331714    -0.13950
C2180       C  0.29208935  0.09329727  0.52306697    -0.29130
H2181       H  0.31443090  0.07852672  0.47813379     0.15070
H2182       H  0.28950164  0.08877433  0.54938889     0.15650
C2183       C  0.03507158  0.30594511  0.60730210    -0.13950
C2184       C  0.04233818  0.27522214  0.61894516    -0.29130
H2185       H  0.02083813  0.32277769  0.62245704     0.15070
H2186       H  0.05444273  0.25663421  0.60422274     0.15650
C2187       C  0.11780289  0.29729162  0.51930571    -0.13950
C2188       C  0.12647402  0.26604731  0.52881442    -0.29130
H2189       H  0.13406088  0.31118090  0.50316875     0.15070
H2190       H  0.11022712  0.25025654  0.54290244     0.15650
C2191       C  0.14335485  0.31706019  0.70431986    -0.13950
C2192       C  0.16061202  0.33829452  0.72340381    -0.29130
H2193       H  0.15154061  0.31098598  0.67954239     0.15070
H2194       H  0.15020370  0.34767164  0.74625570     0.15650
C2195       C  0.24295363  0.32433589  0.64151248    -0.13950
C2196       C  0.22018747  0.30449444  0.62726935    -0.29130
H2197       H  0.26661837  0.32871245  0.62962985     0.15070
H2198       H  0.19501213  0.30336960  0.63641027     0.15650
C2199       C  0.37588027  0.14004949  0.43277252    -0.13950
C2200       C  0.37171242  0.16949107  0.44641996    -0.29130
H2201       H  0.35642586  0.12158936  0.43275029     0.15070
H2202       H  0.39217264  0.18646834  0.45010940     0.15650
C2203       C  0.47116058  0.17855032  0.37042240    -0.13950
C2204       C  0.45562854  0.20779461  0.36103146    -0.29130
H2205       H  0.49302053  0.17093953  0.35698503     0.15070
H2206       H  0.43523819  0.21770186  0.37514240     0.15650
C2207       C  0.25034314  0.03933917  0.27642950    -0.10790
C2208       C  0.25795489  0.06604366  0.28857106    -0.12350
C2209       C  0.26326777  0.17054700  0.36236822    -0.13950
C2210       C  0.27682947  0.20094888  0.37032605    -0.29130
H2211       H  0.24407143  0.16045254  0.37806058     0.15070
H2212       H  0.29469120  0.21304491  0.35459986     0.15650
C2213       C  0.34771710  0.14713179  0.27876919    -0.13950
C2214       C  0.35678877  0.17878009  0.27922611    -0.29130
H2215       H  0.36334866  0.12886591  0.26705623     0.15070
H2216       H  0.34123543  0.19828935  0.28866605     0.15650
C2217       C  0.36056162  0.26105586  0.17755840    -0.13950
C2218       C  0.37097183  0.27590227  0.20736659    -0.29130
H2219       H  0.37234701  0.23825849  0.17036239     0.15070
H2220       H  0.35819329  0.29737211  0.21659930     0.15650
C2221       C  0.30839376  0.35996966  0.13825896    -0.13950
C2222       C  0.28805240  0.36038239  0.16424442    -0.29130
H2223       H  0.31278959  0.38136033  0.12284435     0.15070
H2224       H  0.28136991  0.33790961  0.17717672     0.15650
C2225       C  0.45657496  0.38204613  0.15510834    -0.13950
C2226       C  0.45493694  0.37307155  0.18669741    -0.29130
H2227       H  0.47026072  0.36740210  0.13725948     0.15070
H2228       H  0.44267935  0.38715188  0.20582734     0.15650
C2229       C  0.36466942  0.45832556  0.17214611    -0.13950
C2230       C  0.35581060  0.44477182  0.20208305    -0.29130
H2231       H  0.34918652  0.47712559  0.16116771     0.15070
H2232       H  0.37093098  0.42702148  0.21495253     0.15650
C2233       C  0.20654364  0.36440648  0.26762327    -0.13950
C2234       C  0.17531074  0.35652084  0.25607461    -0.29130
H2235       H  0.21948769  0.34921932  0.28533459     0.15070
H2236       H  0.16427414  0.37158591  0.23691002     0.15650
C2237       C  0.15194567  0.27844306  0.34604797    -0.13950
C2238       C  0.18385812  0.27806765  0.35498747    -0.29130
H2239       H  0.13333646  0.26769991  0.36212180     0.15070
H2240       H  0.20377935  0.28637021  0.33917404     0.15650
C2241       C  0.15316755  0.40351699  0.36200206    -0.13950
C2242       C  0.18098654  0.42115825  0.35900003    -0.29130
H2243       H  0.13499300  0.40207692  0.34226044     0.15070
H2244       H  0.19702114  0.42560971  0.38015815     0.15650
C2245       C  0.19509976  0.36613494  0.46656989    -0.13950
C2246       C  0.22320051  0.35390705  0.45169761    -0.29130
H2247       H  0.18809191  0.35694777  0.49075492     0.15070
H2248       H  0.23240974  0.36435001  0.42885745     0.15650
C2249       C  0.27622657  0.39338247  0.55721397    -0.13950
C2250       C  0.29376423  0.36827704  0.54469699    -0.29130
H2251       H  0.25066572  0.38984843  0.56461390     0.15070
H2252       H  0.32018319  0.37069718  0.54061369     0.15650
C2253       C  0.36541618  0.47377349  0.53458340    -0.13950
C2254       C  0.38167278  0.45416831  0.51304824    -0.29130
H2255       H  0.37723974  0.49636542  0.54274091     0.15070
H2256       H  0.37131484  0.43150739  0.50359698     0.15650
C2257       C  0.36346623  0.26713787  0.51651736    -0.13950
C2258       C  0.37255228  0.25387195  0.54662390    -0.29130
H2259       H  0.37724982  0.28692676  0.50517052     0.15070
H2260       H  0.35886973  0.23278857  0.55575086     0.15650
C2261       C  0.43742103  0.34991577  0.58496247    -0.13950
C2262       C  0.45086148  0.35714276  0.55581126    -0.29130
H2263       H  0.43818329  0.36750072  0.60518600     0.15070
H2264       H  0.45409629  0.33855427  0.53683119     0.15650
C2265       C  0.64692376  0.52095658  0.42088917    -0.13950
C2266       C  0.64278877  0.51540590  0.45287636    -0.29130
H2267       H  0.62836121  0.51323420  0.40287137     0.15070
H2268       H  0.66100948  0.52089610  0.47180894     0.15650
C2269       C  0.72627693  0.61165954  0.43668753    -0.13950
C2270       C  0.71401772  0.62203478  0.46716169    -0.29130
H2271       H  0.74455927  0.62693293  0.42454485     0.15070
H2272       H  0.69674012  0.60745932  0.48126815     0.15650
C2273       C  0.52626140  0.61767281  0.44956233    -0.13950
C2274       C  0.54155154  0.60478823  0.47663592    -0.29130
H2275       H  0.51023185  0.60201023  0.43481520     0.15070
H2276       H  0.55806324  0.61902702  0.49209769     0.15650
C2277       C  0.58710208  0.71997736  0.45193336    -0.13950
C2278       C  0.61432889  0.70122976  0.45184762    -0.29130
H2279       H  0.58874266  0.74659067  0.45250765     0.15070
H2280       H  0.61232994  0.67480128  0.44838709     0.15650
C2281       C  0.48128411  0.53213776  0.36391076    -0.13950
C2282       C  0.46903354  0.50399676  0.37738667    -0.29130
H2283       H  0.50374712  0.54258052  0.37432138     0.15070
H2284       H  0.44796501  0.49120653  0.36703617     0.15650
C2285       C  0.37782231  0.56386271  0.30589597    -0.13950
C2286       C  0.37170887  0.53622184  0.28929104    -0.29130
H2287       H  0.35920978  0.58300165  0.30771580     0.15070
H2288       H  0.39142762  0.51898383  0.28379593     0.15650
C2289       C  0.34348749  0.53711408  0.46339933    -0.13950
C2290       C  0.37117386  0.53463709  0.44552578    -0.29130
H2291       H  0.34428197  0.53832324  0.49019995     0.15070
H2292       H  0.37025642  0.53616275  0.41871266     0.15650
C2293       C  0.27190034  0.52918493  0.36475950    -0.13950
C2294       C  0.28339678  0.49978179  0.35272323    -0.29130
H2295       H  0.25457561  0.54313045  0.34982959     0.15070
H2296       H  0.30076102  0.48469417  0.36620047     0.15650
C2297       C  0.58346791  0.40895676  0.73877944    -0.13950
C2298       C  0.60075274  0.42779700  0.71684273    -0.29130
H2299       H  0.59401525  0.40297268  0.76270548     0.15070
H2300       H  0.59207064  0.43075305  0.69166385     0.15650
C2301       C  0.49808769  0.41759860  0.66028104    -0.13950
C2302       C  0.52278365  0.43067103  0.64222802    -0.29130
H2303       H  0.47340709  0.41466720  0.65003489     0.15070
H2304       H  0.54831128  0.42957009  0.65043071     0.15650
C2305       C  0.71943921  0.44619276  0.61957171    -0.13950
C2306       C  0.70451787  0.47426274  0.63103908    -0.29130
H2307       H  0.73833772  0.43453215  0.63459349     0.15070
H2308       H  0.68540650  0.48701438  0.61750703     0.15650
C2309       C  0.63417103  0.43496297  0.53597931    -0.13950
C2310       C  0.61901778  0.46233863  0.54834609    -0.29130
H2311       H  0.62159192  0.42031212  0.51735767     0.15070
H2312       H  0.63001567  0.47754920  0.56733112     0.15650
C2313       C  0.55216715  0.36994504  0.26793084    -0.13950
C2314       C  0.52075176  0.36003394  0.27911897    -0.29130
H2315       H  0.56578240  0.35294840  0.25245985     0.15070
H2316       H  0.50561979  0.37584248  0.29423260     0.15650
C2317       C  0.56342375  0.46247420  0.34290503    -0.13950
C2318       C  0.56262167  0.44159209  0.36857919    -0.29130
H2319       H  0.56196041  0.48891864  0.34607084     0.15070
H2320       H  0.56638644  0.41539364  0.36508517     0.15650
C2321       C  0.54726401  0.27727850  0.38091171    -0.13950
C2322       C  0.57619584  0.27038370  0.39596330    -0.29130
H2323       H  0.52846730  0.29299306  0.39123767     0.15070
H2324       H  0.59332207  0.25356830  0.38414287     0.15650
C2325       C  0.55907945  0.35821002  0.47874441    -0.13950
C2326       C  0.52863449  0.36702910  0.46660388    -0.29130
H2327       H  0.57139561  0.37397037  0.49660414     0.15070
H2328       H  0.51441757  0.35156085  0.45009599     0.15650
C2329       C  0.45220956  0.53479602  0.62667104    -0.13950
C2330       C  0.48071995  0.54176396  0.61120003    -0.29130
H2331       H  0.43683657  0.51511393  0.61689553     0.15070
H2332       H  0.49745692  0.56070761  0.61971951     0.15650
C2333       C  0.45592827  0.62794744  0.70937625    -0.13950
C2334       C  0.48687394  0.63990891  0.70273341    -0.29130
H2335       H  0.44057593  0.64142741  0.72667188     0.15070
H2336       H  0.50348920  0.62774057  0.68579747     0.15650
C2337       C  0.44142079  0.65029860  0.49853696    -0.13950
C2338       C  0.45066925  0.62834256  0.52145955    -0.29130
H2339       H  0.44045006  0.64360854  0.47256272     0.15070
H2340       H  0.44824024  0.63394314  0.54761271     0.15650
C2341       C  0.44374859  0.71002780  0.60728866    -0.13950
C2342       C  0.42208192  0.72669014  0.58813514    -0.29130
H2343       H  0.45169943  0.68547379  0.60057764     0.15070
H2344       H  0.41116323  0.74936158  0.59708445     0.15650
C2345       C  0.19889189  0.00600535  0.31130387    -0.10790
C2346       C  0.19181353  0.01835959  0.33867546    -0.12350
C2347       C  0.20116801  0.10584787  0.43225802    -0.13950
C2348       C  0.19342680  0.11777517  0.46348253    -0.29130
H2349       H  0.21724205  0.12029115  0.41649478     0.15070
H2350       H  0.17919796  0.10362405  0.48103476     0.15650
C2351       C  0.10714782  0.02945669  0.47024923    -0.13950
C2352       C  0.11627385  0.01947788  0.43911189    -0.29130
H2353       H  0.12316853  0.04394124  0.48599894     0.15070
H2354       H  0.10013607  0.00318525  0.42522180     0.15650
C2355       C  0.10071084  0.21280973  0.42890016    -0.13950
C2356       C  0.08196832  0.23520225  0.41303184    -0.29130
H2357       H  0.09282680  0.18737842  0.43082022     0.15070
H2358       H  0.09159153  0.25948510  0.40747414     0.15650
C2359       C  0.02426958  0.13147947  0.42939117    -0.13950
C2360       C  0.00124896  0.15015149  0.41401245    -0.29130
H2361       H  0.05015407  0.13857075  0.42958324     0.15070
H2362       H  0.97609781  0.14136834  0.41079483     0.15650
C2363       C  0.10790950  0.43293779  0.20251723    -0.13950
C2364       C  0.12091231  0.46120919  0.18877597    -0.29130
H2365       H  0.12409866  0.41689321  0.21651295     0.15070
H2366       H  0.10619040  0.47781233  0.17403215     0.15650
C2367       C  0.00807705  0.44419883  0.14469503    -0.13950
C2368       C  0.02972332  0.44404037  0.11938503    -0.29130
H2369       H  0.98170216  0.44734530  0.14083405     0.15070
H2370       H  0.05573588  0.43864227  0.12337175     0.15650
C2371       C  0.20080900  0.40990264  0.08691373    -0.13950
C2372       C  0.20804401  0.44124532  0.09264920    -0.29130
H2373       H  0.20627773  0.39066516  0.10482970     0.15070
H2374       H  0.20632743  0.46044846  0.07411323     0.15650
C2375       C  0.12107587  0.43722880  0.00131128    -0.13950
C2376       C  0.11328690  0.46742858  0.01576987    -0.29130
H2377       H  0.10486859  0.42751123  0.98230933     0.15070
H2378       H  0.12968000  0.47956951  0.03302858     0.15650
C2379       C  0.43125166  0.21672861  0.10802518    -0.13950
C2380       C  0.46229740  0.20463320  0.11842904    -0.29130
H2381       H  0.41664546  0.22996150  0.12607528     0.15070
H2382       H  0.47794814  0.19093204  0.10181456     0.15650
C2383       C  0.42094619  0.12972828  0.03282059    -0.13950
C2384       C  0.42554031  0.15367710  0.01040798    -0.29130
H2385       H  0.41459900  0.13549046  0.05827684     0.15070
H2386       H  0.43007710  0.14860507  0.98447207     0.15650
C2387       C  0.28554927  0.00506839  0.22079756    -0.10790
C2388       C  0.31347519  0.01245716  0.21133821    -0.12350
C2389       C  0.41308016  0.08149062  0.23098968    -0.13950
C2390       C  0.42910692  0.10123903  0.20938182    -0.29130
H2391       H  0.40803752  0.08945464  0.25607230     0.15070
H2392       H  0.43067831  0.09493510  0.18335201     0.15650
C2393       C  0.41595252  0.01469995  0.13680785    -0.13950
C2394       C  0.44357065  0.03203395  0.12665126    -0.29130
H2395       H  0.40416353  0.99771766  0.11978990     0.15070
H2396       H  0.45562322  0.05003232  0.14224596     0.15650
C2397       C  0.85282488  0.78574759  0.19648263    -0.13950
C2398       C  0.86458889  0.79139653  0.22811604    -0.29130
H2399       H  0.86685992  0.76986130  0.18018034     0.15070
H2400       H  0.85094167  0.80537611  0.24621442     0.15650
C2401       C  0.77314056  0.87792559  0.19928233    -0.13950
C2402       C  0.78420882  0.88968783  0.22894115    -0.29130
H2403       H  0.75585748  0.89255108  0.18495987     0.15070
H2404       H  0.80045434  0.87626334  0.24522571     0.15650
C2405       C  0.97736132  0.90223910  0.17608442    -0.13950
C2406       C  0.95628512  0.88534121  0.19548340    -0.29130
H2407       H  0.00014061  0.89092722  0.16762898     0.15070
H2408       H  0.93161535  0.89451387  0.20050253     0.15650
C2409       C  0.90263767  0.99421016  0.18113911    -0.13950
C2410       C  0.88015485  0.97326474  0.19349767    -0.29130
H2411       H  0.89654970  0.01983572  0.17689691     0.15070
H2412       H  0.88501497  0.94703658  0.19431676     0.15650
C2413       C  0.95432851  0.86874851  0.55758757    -0.13950
C2414       C  0.94480290  0.87934573  0.52642200    -0.29130
H2415       H  0.96988988  0.88456554  0.57259657     0.15070
H2416       H  0.93064210  0.86423927  0.50959360     0.15650
C2417       C  0.88008260  0.77340449  0.55194619    -0.13950
C2418       C  0.87030925  0.78182921  0.52034314    -0.29130
H2419       H  0.86527414  0.75615887  0.56606237     0.15070
H2420       H  0.88530716  0.79714800  0.50444340     0.15650
C2421       C  0.82623807  0.99075897  0.56015661    -0.13950
C2422       C  0.84958377  0.96767135  0.55535049    -0.29130
H2423       H  0.83180468  0.01674453  0.55767769     0.15070
H2424       H  0.84471994  0.94199732  0.56083468     0.15650
C2425       C  0.76435729  0.89677143  0.58551795    -0.13950
C2426       C  0.78521014  0.88040100  0.56497711    -0.29130
H2427       H  0.74187231  0.88512469  0.59425477     0.15070
H2428       H  0.80906394  0.89079574  0.55855892     0.15650
C2429       C  0.87091085  0.20997242  0.77772191    -0.13950
C2430       C  0.88389407  0.24020028  0.78483381    -0.29130
H2431       H  0.88376840  0.19462118  0.75996828     0.15070
H2432       H  0.87239011  0.25681550  0.80218123     0.15650
C2433       C  0.77813753  0.20893374  0.86105796    -0.13950
C2434       C  0.78568780  0.23754506  0.87626635    -0.29130
H2435       H  0.75836914  0.19394925  0.87124756     0.15070
H2436       H  0.80475882  0.25391485  0.86735476     0.15650
C2437       C  0.96298646  0.20369820  0.87685959    -0.13950
C2438       C  0.98236908  0.18714436  0.89802532    -0.29130
H2439       H  0.93682938  0.20692844  0.88193807     0.15070
H2440       H  0.00741092  0.18043601  0.89112548     0.15650
C2441       C  0.89398373  0.18460119  0.97997758    -0.13950
C2442       C  0.87436624  0.20258507  0.96028274    -0.29130
H2443       H  0.88528176  0.17661153  0.00406518     0.15070
H2444       H  0.88099878  0.20695202  0.93465440     0.15650
C2445       C  0.96004536  0.56128902  0.85921300    -0.13950
C2446       C  0.95176139  0.53005309  0.86904647    -0.29130
H2447       H  0.97672248  0.57592731  0.87427153     0.15070
H2448       H  0.93703136  0.51379193  0.85377748     0.15650
C2449       C  0.86752790  0.56167716  0.78072869    -0.13950
C2450       C  0.85721713  0.53066796  0.79097294    -0.29130
H2451       H  0.85160747  0.57571303  0.76444542     0.15070
H2452       H  0.87273279  0.51480961  0.80573842     0.15650
C2453       C  0.84963499  0.60115353  0.96955515    -0.13950
C2454       C  0.85719612  0.57065133  0.95907591    -0.29130
H2455       H  0.86559599  0.61358621  0.98715659     0.15070
H2456       H  0.84176946  0.55646133  0.94246673     0.15650
C2457       C  0.75665854  0.59862690  0.89423565    -0.13950
C2458       C  0.76623533  0.56797704  0.88620030    -0.29130
H2459       H  0.73767650  0.61100573  0.87993887     0.15070
H2460       H  0.78449213  0.55434276  0.90018223     0.15650
C2461       C  0.18533068  0.86203699  0.77142395    -0.13950
C2462       C  0.21674217  0.87347069  0.77890924    -0.29130
H2463       H  0.17055271  0.87573428  0.75379525     0.15070
H2464       H  0.23318895  0.86043477  0.79534657     0.15650
C2465       C  0.18449457  0.77985077  0.86261783    -0.13950
C2466       C  0.21573949  0.78835360  0.87416082    -0.29130
H2467       H  0.16973558  0.76305894  0.87730301     0.15070
H2468       H  0.23219997  0.80410679  0.86036689     0.15650
C2469       C  0.17075420  0.98027432  0.89086438    -0.13950
C2470       C  0.17910803  0.95645415  0.86937150    -0.29130
H2471       H  0.16915616  0.00583903  0.88339154     0.15070
H2472       H  0.17740073  0.93067880  0.87609467     0.15650
C2473       C  0.17116014  0.90203588  0.97894680    -0.13950
C2474       C  0.18193234  0.87982344  0.95691419    -0.29130
H2475       H  0.16759618  0.89561099  0.00474726     0.15070
H2476       H  0.18179605  0.88508685  0.93058953     0.15650
C2477       C  0.54104387  0.86939578  0.97958614    -0.13950
C2478       C  0.51020561  0.87970305  0.97198211    -0.29130
H2479       H  0.55521643  0.88278356  0.99805409     0.15070
H2480       H  0.49417857  0.86641034  0.95523175     0.15650
C2481       C  0.55450544  0.80344638  0.87614970    -0.13950
C2482       C  0.52420360  0.81120705  0.86234876    -0.29130
H2483       H  0.57155165  0.78877132  0.86167704     0.15070
H2484       H  0.50578561  0.82527291  0.87542294     0.15650
C2485       C  0.57710335  0.98656761  0.86326618    -0.13950
C2486       C  0.55973765  0.96351014  0.87968811    -0.29130
H2487       H  0.58054975  0.01099993  0.87354867     0.15070
H2488       H  0.55943299  0.93800873  0.87184039     0.15650
C2489       C  0.58462447  0.91310701  0.76910940    -0.13950
C2490       C  0.55305760  0.90312934  0.77042398    -0.29130
H2491       H  0.60331542  0.89639087  0.75977897     0.15070
H2492       H  0.53277498  0.91900759  0.77735411     0.15650
C2493       C  0.65977927  0.28525235  0.48483862    -0.10790
C2494       C  0.68684571  0.27649081  0.49475672    -0.12350
C2495       C  0.80943550  0.22210065  0.54579433    -0.10790
C2496       C  0.83707400  0.20943095  0.54633861    -0.12350
C2497       C  0.72141808  0.31232337  0.54611375    -0.10790
C2498       C  0.71236363  0.34018080  0.55367177    -0.12350
C2499       C  0.77489958  0.18867405  0.49545182    -0.10790
C2500       C  0.78554096  0.16142693  0.48785541    -0.12350
C2501       C  0.77203932  0.27851907  0.58118127    -0.10790
C2502       C  0.77616404  0.29530521  0.60555302    -0.12350
C2503       C  0.72272829  0.22590065  0.46057772    -0.10790
C2504       C  0.71549984  0.22212909  0.43193022    -0.12350
C2505       C  0.26575000  0.65584569  0.45062252    -0.10790
C2506       C  0.27160059  0.62852151  0.44004587    -0.12350
C2507       C  0.21774117  0.77744407  0.50113830    -0.10790
C2508       C  0.21073924  0.80518185  0.50807312    -0.12350
C2509       C  0.30311237  0.69447691  0.50154412    -0.10790
C2510       C  0.33160905  0.69491999  0.51033779    -0.12350
C2511       C  0.20768843  0.68238560  0.39100266    -0.10790
C2512       C  0.21311045  0.68980485  0.41926574    -0.12350
C2513       C  0.26723568  0.74316536  0.53756695    -0.10790
C2514       C  0.27375143  0.75274912  0.56506828    -0.12350
C2515       C  0.17752114  0.73993172  0.45830744    -0.10790
C2516       C  0.14948874  0.75012680  0.45877374    -0.12350
C2517       C  0.95374383  0.51567613  0.51989907    -0.10790
C2518       C  0.92567418  0.52073480  0.52810155    -0.12350
C2519       C  0.06686405  0.45624388  0.46098749    -0.10790
C2520       C  0.09125348  0.43938343  0.45566089    -0.12350
C2521       C  0.03523178  0.42547655  0.51564232    -0.10790
C2522       C  0.04377286  0.39790028  0.52455344    -0.12350
C2523       C  0.02746085  0.51349391  0.42537506    -0.10790
C2524       C  0.02668840  0.52887273  0.39919308    -0.12350
C2525       C  0.97902141  0.57841938  0.45461918    -0.10790
C2526       C  0.98557046  0.55078545  0.46506321    -0.12350
C2527       C  0.98723596  0.46382403  0.55338352    -0.10790
C2528       C  0.97777368  0.45723547  0.58122711    -0.12350
C2529       C  0.29228406  0.49441898  0.66289565    -0.10790
C2530       C  0.29915892  0.48266240  0.63642927    -0.12350
C2531       C  0.23659601  0.54736305  0.77999619    -0.10790
C2532       C  0.22702527  0.54744303  0.80815120    -0.12350
C2533       C  0.32634904  0.54821285  0.69786960    -0.10790
C2534       C  0.35432983  0.55796606  0.69298695    -0.12350
C2535       C  0.29780593  0.61058547  0.75323221    -0.10790
C2536       C  0.28954473  0.58307860  0.74607267    -0.12350
C2537       C  0.20031782  0.50073227  0.74316469    -0.10790
C2538       C  0.17242926  0.49433600  0.75193951    -0.12350
C2539       C  0.23840167  0.46227060  0.69676417    -0.10790
C2540       C  0.23101460  0.43370852  0.69342482    -0.12350
C2541       C  0.21370334  0.21516906  0.91453488    -0.10790
C2542       C  0.20665471  0.20324595  0.88691444    -0.12350
C2543       C  0.26589906  0.26560732  0.04278022    -0.10790
C2544       C  0.28210510  0.26831792  0.06913808    -0.12350
C2545       C  0.30259205  0.22038321  0.00759530    -0.10790
C2546       C  0.32971074  0.21813682  0.02249546    -0.12350
C2547       C  0.19449091  0.32989466  0.00220818    -0.10790
C2548       C  0.20936505  0.30355051  0.00101184    -0.12350
C2549       C  0.27186387  0.15650339  0.93733764    -0.10790
C2550       C  0.26705365  0.18400022  0.94893149    -0.12350
C2551       C  0.14857872  0.28429070  0.94675828    -0.10790
C2552       C  0.17561829  0.27022386  0.95185130    -0.12350
C2553       C  0.54054431  0.80578745  0.21847302    -0.10790
C2554       C  0.53495200  0.77947176  0.23082207    -0.12350
C2555       C  0.48097751  0.66320470  0.28832110    -0.10790
C2556       C  0.47226084  0.63755519  0.30048266    -0.12350
C2557       C  0.48582251  0.74368989  0.19646862    -0.10790
C2558       C  0.47689061  0.75243766  0.16943520    -0.12350
C2559       C  0.52785575  0.70041089  0.32414880    -0.10790
C2560       C  0.52988998  0.69306370  0.35297236    -0.12350
C2561       C  0.56595820  0.74938422  0.28716268    -0.10790
C2562       C  0.59374902  0.75902425  0.29010912    -0.12350
C2563       C  0.44965781  0.69746758  0.23285856    -0.10790
C2564       C  0.42188909  0.69730406  0.22304415    -0.12350
C2565       C  0.44573893  0.24715786  0.68497473    -0.10790
C2566       C  0.43447152  0.25457559  0.65787480    -0.12350
C2567       C  0.49779957  0.19912852  0.80971952    -0.10790
C2568       C  0.50338776  0.18724887  0.83691748    -0.12350
C2569       C  0.41366737  0.19609236  0.71904263    -0.10790
C2570       C  0.38607698  0.19585074  0.70688921    -0.12350
C2571       C  0.49525490  0.28604420  0.72402923    -0.10790
C2572       C  0.50428958  0.31446774  0.72187459    -0.12350
C2573       C  0.45282449  0.16131841  0.77509578    -0.10790
C2574       C  0.45157243  0.13698921  0.79265708    -0.12350
C2575       C  0.53332121  0.25091919  0.77062930    -0.10790
C2576       C  0.56135236  0.26131408  0.77222583    -0.12350
C2577       C  0.53214213  0.92580612  0.52010263    -0.10790
C2578       C  0.54333248  0.89889909  0.52909876    -0.12350
C2579       C  0.47835325  0.04656108  0.46129518    -0.10790
C2580       C  0.47288176  0.07221846  0.44581532    -0.12350
C2581       C  0.44052780  0.01037235  0.51767131    -0.10790
C2582       C  0.41209903  0.01455193  0.52824826    -0.12350
C2583       C  0.53396131  0.02642912  0.40069408    -0.10790
C2584       C  0.52881172  0.01314977  0.42803813    -0.12350
C2585       C  0.56601570  0.95912408  0.46538681    -0.10790
C2586       C  0.59380304  0.94929566  0.45706736    -0.12350
C2587       C  0.46247157  0.95530114  0.58258715    -0.10790
C2588       C  0.47538221  0.96164192  0.55517039    -0.12350
C2589       C  0.51686248  0.52607984  0.93007513    -0.10790
C2590       C  0.53269557  0.53173311  0.90504687    -0.12350
C2591       C  0.45531724  0.47415289  0.04693822    -0.10790
C2592       C  0.44217748  0.46718250  0.07293858    -0.12350
C2593       C  0.52363876  0.41213180  0.01958002    -0.10790
C2594       C  0.51275631  0.43969268  0.01440798    -0.12350
C2595       C  0.42254005  0.52722856  0.01492886    -0.10790
C2596       C  0.39528612  0.53629025  0.02604373    -0.12350
C2597       C  0.45985119  0.56227234  0.96434274    -0.10790
C2598       C  0.44952999  0.59026570  0.96022287    -0.12350
C2599       C  0.55017344  0.47462235  0.96483142    -0.10790
C2600       C  0.57793603  0.46525934  0.95564957    -0.12350
C2601       C  0.80782074  0.51834473  0.21337037    -0.10790
C2602       C  0.83289137  0.52253836  0.19637646    -0.12350
C2603       C  0.68354891  0.46505242  0.26764518    -0.10790
C2604       C  0.65626261  0.45087903  0.27039532    -0.12350
C2605       C  0.71728975  0.43124858  0.21880532    -0.10790
C2606       C  0.70066061  0.40575222  0.21528584    -0.12350
C2607       C  0.72380756  0.52188492  0.30469074    -0.10790
C2608       C  0.72210975  0.53599930  0.33158257    -0.12350
C2609       C  0.77304081  0.47119379  0.17985498    -0.10790
C2610       C  0.78848798  0.47045956  0.15355865    -0.12350
C2611       C  0.77093517  0.55667578  0.26872041    -0.10790
C2612       C  0.77349970  0.58476322  0.28043172    -0.12350
C2613       C  0.01287903  0.94248802  0.01644870    -0.10790
C2614       C  0.01983239  0.91514567  0.02434742    -0.12350
C2615       C  0.92368224  0.02219239  0.00902329    -0.10790
C2616       C  0.89523356  0.02772673  0.01441005    -0.12350
C2617       C  0.00549668  0.01529181  0.92150334    -0.10790
C2618       C  0.01108623  0.01950996  0.89276735    -0.12350
C2619       C  0.04452439  0.97283392  0.96215296    -0.10790
C2620       C  0.07318364  0.96740457  0.95804233    -0.12350
C2621       C  0.95394059  0.08380912  0.95249305    -0.10790
C2622       C  0.95852690  0.05510970  0.95713290    -0.12350
C2623       C  0.96216844  0.97769658  0.04905953    -0.10790
C2624       C  0.95886893  0.97163753  0.07787472    -0.12350
C2625       C  0.88423046  0.22059299  0.19540408    -0.10790
C2626       C  0.91177101  0.23107489  0.20361702    -0.12350
C2627       C  0.04038755  0.27824862  0.25133261    -0.10790
C2628       C  0.06825264  0.28810538  0.25814788    -0.12350
C2629       C  0.01880016  0.34299846  0.20228992    -0.10790
C2630       C  0.00502740  0.31637953  0.20537900    -0.12350
C2631       C  0.00308364  0.22732564  0.28667567    -0.10790
C2632       C  0.01051154  0.22045916  0.31476523    -0.12350
C2633       C  0.94885644  0.19449664  0.25230107    -0.10790
C2634       C  0.93977137  0.16731551  0.26069646    -0.12350
C2635       C  0.94660334  0.28513047  0.17210489    -0.10790
C2636       C  0.93717406  0.29059017  0.14442624    -0.12350
C2637       C  0.02146834  0.71883218  0.80544506    -0.10790
C2638       C  0.03145989  0.70868542  0.83287027    -0.12350
C2639       C  0.02152328  0.80849735  0.71494388    -0.10790
C2640       C  0.03106935  0.83570871  0.70404593    -0.12350
C2641       C  0.93004060  0.71925636  0.71702604    -0.10790
C2642       C  0.90224723  0.70815620  0.70877499    -0.12350
C2643       C  0.96482672  0.68493074  0.77050771    -0.10790
C2644       C  0.95313198  0.65787627  0.77939082    -0.12350
C2645       C  0.95645751  0.78413290  0.65312006    -0.10790
C2646       C  0.96605633  0.77401513  0.68071295    -0.12350
C2647       C  0.08533713  0.78321389  0.78064836    -0.10790
C2648       C  0.05747634  0.77353246  0.77053585    -0.12350
C2649       C  0.82194164  0.73894786  0.04253000    -0.10790
C2650       C  0.79447649  0.74968428  0.03496018    -0.12350
C2651       C  0.70264210  0.83415042  0.03729517    -0.10790
C2652       C  0.69172946  0.86069176  0.04605619    -0.12350
C2653       C  0.64476059  0.80717169  0.96581758    -0.10790
C2654       C  0.67148451  0.80148154  0.97923358    -0.12350
C2655       C  0.70801497  0.75176698  0.94504810    -0.10790
C2656       C  0.69973353  0.74272527  0.91715583    -0.12350
C2657       C  0.75905332  0.71798243  0.98201690    -0.10790
C2658       C  0.76710415  0.69092842  0.97346621    -0.12350
C2659       C  0.75910641  0.79946725  0.07245229    -0.10790
C2660       C  0.77133985  0.80456090  0.10005679    -0.12350
C2661       C  0.82182113  0.04890159  0.73381982    -0.10790
C2662       C  0.85006375  0.05618603  0.72800345    -0.12350
C2663       C  0.72450334  0.05124118  0.84870525    -0.10790
C2664       C  0.73657593  0.04622752  0.82175424    -0.12350
C2665       C  0.73418538  0.93219555  0.72495641    -0.10790
C2666       C  0.74154814  0.95841934  0.73707979    -0.12350
C2667       C  0.67744772  0.98596685  0.79451757    -0.10790
C2668       C  0.70547921  0.99329110  0.78801771    -0.12350
C2669       C  0.78507288  0.99615771  0.69870530    -0.10790
C2670       C  0.78479350  0.98489921  0.67092892    -0.12350
C2671       C  0.79767063  0.11109092  0.79206010    -0.10790
C2672       C  0.78825612  0.08338900  0.78548830    -0.12350
loop_ 
_geom_bond_atom_site_label_1 
_geom_bond_atom_site_label_2 
_geom_bond_distance 
_geom_bond_site_symmetry_2 
_ccdc_geom_bond_type 
C1            C2   1.420       .  A
C1            C6   1.419       .  A
C1         C2672   1.471       .  S
C2            C3   1.419       .  A
C2         C2661   1.444       .  S
C3            C4   1.404   1_545  A
C3         C2669   1.462   1_545  S
C4            C5   1.410   1_565  A
C4         C2666   1.463       .  S
C5            C6   1.415       .  A
C5         C2668   1.444   1_545  S
C6         C2664   1.461       .  S
C7            C8   1.427       .  A
C7           C12   1.455       .  A
C7         C2659   1.500       .  S
C8            C9   1.427   1_554  A
C8         C2650   1.496       .  S
C9           C10   1.425       .  A
C9         C2657   1.440       .  S
C10          C11   1.419       .  A
C10        C2655   1.497       .  S
C11          C12   1.449   1_556  A
C11        C2654   1.490       .  S
C12        C2651   1.469       .  S
C13          C14   1.472       .  A
C13          C18   1.471       .  A
C13        C2648   1.537       .  S
C14          C15   1.471   1_455  A
C14        C2639   1.525       .  S
C15          C16   1.469       .  A
C15        C2646   1.522       .  S
C16          C17   1.460       .  A
C16        C2641   1.529       .  S
C17          C18   1.471   1_655  A
C17        C2643   1.522       .  S
C18        C2637   1.521       .  S
C19          C20   1.439       .  A
C19          C24   1.412   1_655  A
C19        C2630   1.478   1_655  S
C20          C21   1.430       .  A
C20        C2635   1.442       .  S
C21          C22   1.418       .  A
C21        C2626   1.503       .  S
C22          C23   1.430       .  A
C22        C2633   1.464       .  S
C23          C24   1.423   1_655  A
C23        C2631   1.452   1_655  S
C24        C2627   1.487       .  S
C25          C26   1.400   1_564  A
C25          C30   1.395       .  A
C25        C2623   1.442       .  S
C26          C27   1.401       .  A
C26        C2615   1.430   1_556  S
C27          C28   1.398       .  A
C27        C2622   1.438       .  S
C28          C29   1.396   1_645  A
C28        C2617   1.437   1_655  S
C29          C30   1.396   1_456  A
C29        C2619   1.430       .  S
C30        C2613   1.432   1_655  S
C31          C32   1.444       .  A
C31          C36   1.440       .  A
C31        C2611   1.508       .  S
C32          C33   1.435       .  A
C32        C2601   1.500       .  S
C33          C34   1.461       .  A
C33        C2609   1.490       .  S
C34          C35   1.438       .  A
C34        C2605   1.507       .  S
C35          C36   1.466       .  A
C35        C2603   1.517       .  S
C36        C2607   1.486       .  S
C37          C38   1.431       .  A
C37          C42   1.425   1_556  A
C37        C2599   1.516       .  S
C38          C39   1.458       .  A
C38        C2589   1.469       .  S
C39          C40   1.432   1_556  A
C39        C2597   1.477       .  S
C40          C41   1.428       .  A
C40        C2595   1.522       .  S
C41          C42   1.450       .  A
C41        C2591   1.458       .  S
C42        C2594   1.476       .  S
C43          C44   1.462       .  A
C43          C48   1.447   1_565  A
C43        C2588   1.527       .  S
C44          C45   1.461       .  A
C44        C2577   1.503       .  S
C45          C46   1.456       .  A
C45        C2585   1.504       .  S
C46          C47   1.439   1_565  A
C46        C2584   1.521   1_565  S
C47          C48   1.464       .  A
C47        C2579   1.499       .  S
C48        C2581   1.501       .  S
C49          C50   1.415       .  A
C49          C54   1.439       .  A
C49        C2573   1.467       .  S
C50          C51   1.418       .  A
C50        C2567   1.480       .  S
C51          C52   1.418       .  A
C51        C2575   1.456       .  S
C52          C53   1.423       .  A
C52        C2571   1.465       .  S
C53          C54   1.423       .  A
C53        C2565   1.482       .  S
C54        C2569   1.465       .  S
C55          C56   1.401       .  A
C55          C60   1.396       .  A
C55        C2557   1.457       .  S
C56          C57   1.408       .  A
C56        C2563   1.422       .  S
C57          C58   1.402       .  A
C57        C2555   1.453       .  S
C58          C59   1.411       .  A
C58        C2559   1.452       .  S
C59          C60   1.411       .  A
C59        C2561   1.431       .  S
C60        C2554   1.449       .  S
C61          C62   1.453       .  A
C61          C66   1.446       .  A
C61        C2552   1.526       .  S
C62          C63   1.457       .  A
C62        C2541   1.522       .  S
C63          C64   1.468       .  A
C63        C2550   1.483       .  S
C64          C65   1.435   1_556  A
C64        C2545   1.526   1_556  S
C65          C66   1.473   1_554  A
C65        C2543   1.526       .  S
C66        C2548   1.483   1_556  S
C67          C68   1.408       .  A
C67          C72   1.404       .  A
C67        C2537   1.462       .  S
C68          C69   1.419       .  A
C68        C2539   1.453       .  S
C69          C70   1.418       .  A
C69        C2529   1.449       .  S
C70          C71   1.410       .  A
C70        C2533   1.466       .  S
C71          C72   1.412       .  A
C71        C2536   1.446       .  S
C72        C2531   1.446       .  S
C73          C74   1.418   1_455  A
C73          C78   1.433       .  A
C73        C2521   1.491       .  S
C74          C75   1.423       .  A
C74        C2527   1.475       .  S
C75          C76   1.421       .  A
C75        C2517   1.441       .  S
C76          C77   1.418   1_655  A
C76        C2526   1.496       .  S
C77          C78   1.456       .  A
C77        C2523   1.483       .  S
C78        C2519   1.468       .  S
C79          C80   1.399       .  A
C79          C84   1.411       .  A
C79        C2515   1.452       .  S
C80          C81   1.399       .  A
C80        C2507   1.441       .  S
C81          C82   1.410       .  A
C81        C2513   1.456       .  S
C82          C83   1.422       .  A
C82        C2509   1.445       .  S
C83          C84   1.414       .  A
C83        C2505   1.465       .  S
C84        C2512   1.444       .  S
C85          C86   1.428       .  A
C85          C90   1.420       .  A
C85        C2499   1.491       .  S
C86          C87   1.426       .  A
C86        C2503   1.446       .  S
C87          C88   1.412       .  A
C87        C2494   1.474       .  S
C88          C89   1.430       .  A
C88        C2497   1.495       .  S
C89          C90   1.448       .  A
C89        C2501   1.450       .  S
C90        C2495   1.488       .  S
C91          C92   1.396       .  A
C91          C96   1.398       .  A
C91        C2667   1.434       .  S
C92          C93   1.398       .  A
C92          H97   1.075       .  S
C93          C94   1.389       .  A
C93        C2489   1.464       .  S
C94          C95   1.388       .  A
C94          H98   1.080       .  S
C95          C96   1.398       .  A
C95        C2485   1.457       .  S
C96          H99   1.079   1_565  S
C100        C101   1.433       .  A
C100        C105   1.394       .  A
C100       C2481   1.513       .  S
C101        C102   1.427       .  A
C101        H106   1.079       .  S
C102        C103   1.400       .  A
C102       C2653   1.482       .  S
C103        C104   1.406       .  A
C103        H107   1.085       .  S
C104        C105   1.399       .  A
C104       C2477   1.478       .  S
C105        H108   1.070       .  S
C109        C110   1.396       .  A
C109        C114   1.392       .  A
C109       C2620   1.419       .  S
C110        C111   1.397       .  A
C110        H115   1.085       .  S
C111        C112   1.391       .  A
C111       C2473   1.451       .  S
C112        C113   1.387       .  A
C112        H116   1.085       .  S
C113        C114   1.393       .  A
C113       C2469   1.445       .  S
C114        H117   1.085       .  S
C118        C119   1.441       .  A
C118        C123   1.391       .  A
C118       C2465   1.520       .  S
C119        C120   1.436       .  A
C119        H124   1.082       .  S
C120        C121   1.432       .  A
C120       C2647   1.532       .  S
C121        C122   1.437       .  A
C121        H125   1.082       .  S
C122        C123   1.392       .  A
C122       C2461   1.515       .  S
C123        H126   1.069       .  S
C127        C128   1.403       .  A
C127        C132   1.404       .  A
C127       C2658   1.430       .  S
C128        C129   1.398       .  A
C128        H133   1.082       .  S
C129        C130   1.386       .  A
C129       C2457   1.466       .  S
C130        C131   1.384       .  A
C130        H134   1.079       .  S
C131        C132   1.399       .  A
C131       C2453   1.468       .  S
C132        H135   1.080       .  S
C136        C137   1.441       .  A
C136        C141   1.381       .  A
C136       C2449   1.517       .  S
C137        C138   1.440       .  A
C137        H142   1.080       .  S
C138        C139   1.422       .  A
C138       C2644   1.516       .  S
C139        C140   1.423       .  A
C139        H143   1.083       .  S
C140        C141   1.385       .  A
C140       C2445   1.492       .  S
C141        H144   1.073       .  S
C145        C146   1.398       .  A
C145        C150   1.397       .  A
C145       C2621   1.429       .  S
C146        C147   1.400       .  A
C146        H151   1.085       .  S
C147        C148   1.394       .  A
C147       C2441   1.462       .  S
C148        C149   1.394       .  A
C148        H152   1.084       .  S
C149        C150   1.399       .  A
C149       C2438   1.460       .  S
C150        H153   1.085       .  S
C154        C155   1.421       .  A
C154        C159   1.401       .  A
C154       C2429   1.495       .  S
C155        C156   1.410       .  A
C155        H160   1.083       .  S
C156        C157   1.397       .  A
C156       C2671   1.463       .  S
C157        C158   1.407       .  A
C157        H161   1.085       .  S
C158        C159   1.404       .  A
C158       C2433   1.480       .  S
C159        H162   1.074       .  S
C163        C164   1.415       .  A
C163        C168   1.388       .  A
C163       C2425   1.482       .  S
C164        C165   1.415       .  A
C164        H169   1.073       .  S
C165        C166   1.395       .  A
C165       C2670   1.453       .  S
C166        C167   1.398       .  A
C166        H170   1.085   1_565  S
C167        C168   1.388       .  A
C167       C2421   1.450       .  S
C168        H171   1.085       .  S
C172        C173   1.430       .  A
C172        C177   1.384       .  A
C172       C2417   1.500       .  S
C173        C174   1.428       .  A
C173        H178   1.083       .  S
C174        C175   1.434       .  A
C174       C2645   1.517       .  S
C175        C176   1.436       .  A
C175        H179   1.082       .  S
C176        C177   1.382       .  A
C176       C2413   1.509       .  S
C177        H180   1.071       .  S
C181        C182   1.395       .  A
C181        C186   1.403       .  A
C181       C2624   1.431       .  S
C182        C183   1.396       .  A
C182        H187   1.085   1_565  S
C183        C184   1.391       .  A
C183       C2409   1.455       .  S
C184        C185   1.392       .  A
C184        H188   1.085       .  S
C185        C186   1.403       .  A
C185       C2405   1.467       .  S
C186        H189   1.083       .  S
C190        C191   1.388       .  A
C190        C195   1.435       .  A
C190       C2397   1.508       .  S
C191        C192   1.389       .  A
C191        H196   1.068       .  S
C192        C193   1.415       .  A
C192       C2401   1.483       .  S
C193        C194   1.409       .  A
C193        H197   1.084       .  S
C194        C195   1.430       .  A
C194       C2660   1.494       .  S
C195        H198   1.082       .  S
C199        C200   1.408       .  A
C199        C204   1.428       .  A
C199       C2388   1.480       .  S
C200        C201   1.406       .  A
C200        H205   1.082       .  S
C201        C202   1.386       .  A
C201       C2389   1.467       .  S
C202        C203   1.381       .  A
C202        H206   1.082       .  S
C203        C204   1.429       .  A
C203       C2393   1.499       .  S
C204        H207   1.078   1_545  S
C208        C209   1.389       .  A
C208        C213   1.467       .  A
C208       C2379   1.552       .  S
C209        C210   1.392       .  A
C209        H214   1.079       .  S
C210        C211   1.393       .  A
C210       C2384   1.444       .  S
C211        C212   1.389       .  A
C211        H215   1.086   1_554  S
C212        C213   1.462       .  A
C212       C2546   1.516       .  S
C213        H216   1.075       .  S
C217        C218   1.371       .  A
C217        C222   1.379       .  A
C217       C2371   1.417       .  S
C218        C219   1.375       .  A
C218        H223   1.088       .  S
C219        C220   1.450   1_554  A
C219       C2547   1.473       .  S
C220        C221   1.453   1_556  A
C220        H224   1.080       .  S
C221        C222   1.379       .  A
C221       C2375   1.520       .  S
C222        H225   1.078       .  S
C226        C227   1.433       .  A
C226        C231   1.389       .  A
C226       C2363   1.503       .  S
C227        C228   1.428       .  A
C227        H232   1.077       .  S
C228        C229   1.392       .  A
C228       C2629   1.469       .  S
C229        C230   1.394       .  A
C229        H233   1.085   1_455  S
C230        C231   1.388       .  A
C230       C2367   1.447       .  S
C231        H234   1.080       .  S
C235        C236   1.404       .  A
C235        C240   1.389       .  A
C235       C2356   1.466       .  S
C236        C237   1.406       .  A
C236        H241   1.082       .  S
C237        C238   1.405       .  A
C237       C2632   1.445       .  S
C238        C239   1.402       .  A
C238        H242   1.079   1_455  S
C239        C240   1.384       .  A
C239       C2360   1.463       .  S
C240        H243   1.085       .  S
C244        C245   1.383       .  A
C244        C249   1.440       .  A
C244       C2347   1.516       .  S
C245        C246   1.385       .  A
C245        H250   1.072       .  S
C246        C247   1.423       .  A
C246       C2352   1.492       .  S
C247        C248   1.420       .  A
C247        H251   1.083   1_545  S
C248        C249   1.438       .  A
C248       C2346   1.514       .  S
C249        H252   1.080       .  S
C253        C254   1.396       .  A
C253        C258   1.392       .  A
C253       C2337   1.455       .  S
C254        C255   1.394       .  A
C254        H259   1.085       .  S
C255        C256   1.409       .  A
C255       C2510   1.441       .  S
C256        C257   1.410       .  A
C256        H260   1.081       .  S
C257        C258   1.394       .  A
C257       C2342   1.477       .  S
C258        H261   1.084       .  S
C262        C263   1.401       .  A
C262        C267   1.406       .  A
C262       C2329   1.475       .  S
C263        C264   1.391       .  A
C263        H268   1.086       .  S
C264        C265   1.411       .  A
C264       C2534   1.456       .  S
C265        C266   1.422       .  A
C265        H269   1.083       .  S
C266        C267   1.402       .  A
C266       C2333   1.498       .  S
C267        H270   1.075       .  S
C271        C272   1.414       .  A
C271        C276   1.405       .  A
C271       C2493   1.463       .  S
C272        C273   1.418       .  A
C272        H277   1.083       .  S
C273        C274   1.385       .  A
C273       C2325   1.486       .  S
C274        C275   1.393       .  A
C274        H278   1.071       .  S
C275        C276   1.406       .  A
C275       C2322   1.479       .  S
C276        H279   1.080       .  S
C280        C281   1.390       .  A
C280        C285   1.388       .  A
C280       C2317   1.441       .  S
C281        C282   1.388       .  A
C281        H286   1.086       .  S
C282        C283   1.459       .  A
C282       C2604   1.508       .  S
C283        C284   1.464       .  A
C283        H287   1.078       .  S
C284        C285   1.388       .  A
C284       C2313   1.544       .  S
C285        H288   1.078       .  S
C289        C290   1.418       .  A
C289        C294   1.388       .  A
C289       C2309   1.486       .  S
C290        C291   1.415       .  A
C290        H295   1.083       .  S
C291        C292   1.420       .  A
C291       C2498   1.483       .  S
C292        C293   1.424       .  A
C292        H296   1.083       .  S
C293        C294   1.387       .  A
C293       C2305   1.492       .  S
C294        H297   1.075       .  S
C298        C299   1.399       .  A
C298        C303   1.420       .  A
C298       C2572   1.457       .  S
C299        C300   1.399       .  A
C299        H304   1.085       .  S
C300        C301   1.386       .  A
C300       C2301   1.455       .  S
C301        C302   1.383       .  A
C301        H305   1.085       .  S
C302        C303   1.416       .  A
C302       C2297   1.487       .  S
C303        H306   1.075       .  S
C307        C308   1.393       .  A
C307        C312   1.396       .  A
C307       C2289   1.451       .  S
C308        C309   1.390       .  A
C308        H313   1.086       .  S
C309        C310   1.416       .  A
C309       C2506   1.456       .  S
C310        C311   1.426       .  A
C310        H314   1.081       .  S
C311        C312   1.395       .  A
C311       C2293   1.494       .  S
C312        H315   1.080       .  S
C316        C317   1.418       .  A
C316        C321   1.398       .  A
C316       C2281   1.487       .  S
C317        C318   1.411       .  A
C317        H322   1.083       .  S
C318        C319   1.390       .  A
C318       C2556   1.442       .  S
C319        C320   1.390       .  A
C319        H323   1.085       .  S
C320        C321   1.394       .  A
C320       C2285   1.451       .  S
C321        H324   1.080       .  S
C325        C326   1.415       .  A
C325        C330   1.396       .  A
C325       C2273   1.481       .  S
C326        C327   1.406       .  A
C326        H331   1.084       .  S
C327        C328   1.391       .  A
C327       C2560   1.442       .  S
C328        C329   1.395       .  A
C328        H332   1.086       .  S
C329        C330   1.396       .  A
C329       C2277   1.454       .  S
C330        H333   1.081       .  S
C334        C335   1.391       .  A
C334        C339   1.378       .  A
C334       C2265   1.427       .  S
C335        C336   1.383       .  A
C335        H340   1.077       .  S
C336        C337   1.447       .  A
C336       C2269   1.524       .  S
C337        C338   1.444       .  A
C337        H341   1.067       .  S
C338        C339   1.376       .  A
C338       C2608   1.477       .  S
C339        H342   1.087       .  S
C343        C344   1.394       .  A
C343        C348   1.392       .  A
C343       C2261   1.454       .  S
C344        C345   1.392       .  A
C344        H349   1.080       .  S
C345        C346   1.435       .  A
C345       C2258   1.507       .  S
C346        C347   1.430       .  A
C346        H350   1.081       .  S
C347        C348   1.392       .  A
C347       C2566   1.470       .  S
C348        H351   1.085       .  S
C352        C353   1.408       .  A
C352        C357   1.396       .  A
C352       C2253   1.474       .  S
C353        C354   1.400       .  A
C353        H358   1.085       .  S
C354        C355   1.400       .  A
C354       C2530   1.442       .  S
C355        C356   1.401       .  A
C355        H359   1.083       .  S
C356        C357   1.397       .  A
C356       C2249   1.468       .  S
C357        H360   1.081       .  S
C361        C362   1.435       .  A
C361        C366   1.390       .  A
C361       C2245   1.502       .  S
C362        C363   1.433       .  A
C362        H367   1.083       .  S
C363        C364   1.390       .  A
C363       C2520   1.464       .  S
C364        C365   1.388       .  A
C364        H368   1.086       .  S
C365        C366   1.384       .  A
C365       C2241   1.441       .  S
C366        H369   1.082       .  S
C370        C371   1.391       .  A
C370        C375   1.397       .  A
C370       C2237   1.461       .  S
C371        C372   1.384       .  A
C371        H376   1.077       .  S
C372        C373   1.432       .  A
C372       C2234   1.502       .  S
C373        C374   1.429       .  A
C373        H377   1.079       .  S
C374        C375   1.397       .  A
C374       C2628   1.473       .  S
C375        H378   1.083       .  S
C379        C380   1.426       .  A
C379        C384   1.381       .  A
C379       C2229   1.492       .  S
C380        C381   1.423       .  A
C380        H385   1.078       .  S
C381        C382   1.388       .  A
C381       C2592   1.449       .  S
C382        C383   1.385       .  A
C382        H386   1.085       .  S
C383        C384   1.389       .  A
C383       C2225   1.444       .  S
C384        H387   1.077       .  S
C388        C389   1.469       .  A
C388        C393   1.387       .  A
C388       C2544   1.517       .  S
C389        C390   1.472       .  A
C389        H394   1.082       .  S
C390        C391   1.384       .  A
C390       C2217   1.551       .  S
C391        C392   1.385       .  A
C391        H395   1.083       .  S
C392        C393   1.387       .  A
C392       C2221   1.432       .  S
C393        H396   1.086       .  S
C397        C398   1.389       .  A
C397        C402   1.396       .  A
C397       C2213   1.460       .  S
C398        C399   1.381       .  A
C398        H403   1.078       .  S
C399        C400   1.439       .  A
C399       C2209   1.511       .  S
C400        C401   1.437       .  A
C400        H404   1.080       .  S
C401        C402   1.398       .  A
C401       C2208   1.480       .  S
C402        H405   1.083       .  S
C406        C407   1.454       .  A
C406        C411   1.384       .  A
C406       C2203   1.528       .  S
C407        C408   1.452       .  A
C407        H412   1.082       .  S
C408        C409   1.389       .  A
C408       C2580   1.489       .  S
C409        C410   1.385       .  A
C409        H413   1.086       .  S
C410        C411   1.386       .  A
C410       C2199   1.438       .  S
C411        H414   1.081       .  S
C415        C416   1.408       .  A
C415        C420   1.405       .  A
C415       C2540   1.444       .  S
C416        C417   1.405       .  A
C416        H421   1.082       .  S
C417        C418   1.388       .  A
C417       C2192   1.470       .  S
C418        C419   1.387       .  A
C418        H422   1.085       .  S
C419        C420   1.403       .  A
C419       C2195   1.467       .  S
C420        H423   1.083       .  S
C424        C425   1.421       .  A
C424        C429   1.415       .  A
C424       C2522   1.480       .  S
C425        C426   1.422       .  A
C425        H430   1.083       .  S
C426        C427   1.383       .  A
C426       C2187   1.489       .  S
C427        C428   1.383       .  A
C427        H431   1.071       .  S
C428        C429   1.416       .  A
C428       C2183   1.482       .  S
C429        H432   1.083       .  S
C433        C434   1.401       .  A
C433        C438   1.440       .  A
C433       C2582   1.495       .  S
C434        C435   1.403       .  A
C434        H439   1.084       .  S
C435        C436   1.391       .  A
C435       C2179   1.463       .  S
C436        C437   1.383       .  A
C436        H440   1.081       .  S
C437        C438   1.443       .  A
C437       C2176   1.521       .  S
C438        H441   1.074   1_545  S
C442        C443   1.396       .  A
C442        C447   1.386       .  A
C442       C2167   1.446       .  S
C443        C444   1.392       .  A
C443        H448   1.086       .  S
C444        C445   1.421       .  A
C444       C2570   1.461       .  S
C445        C446   1.427       .  A
C445        H449   1.080       .  S
C446        C447   1.393       .  A
C446       C2171   1.492       .  S
C447        H450   1.081       .  S
C451        C452   1.395       .  A
C451        C456   1.393       .  A
C451       C2159   1.451       .  S
C452        C453   1.392       .  A
C452        H457   1.085       .  S
C453        C454   1.401       .  A
C453       C2511   1.435       .  S
C454        C455   1.409       .  A
C454        H458   1.081       .  S
C455        C456   1.395       .  A
C455       C2163   1.474       .  S
C456        H459   1.081       .  S
C460        C461   1.380       .  A
C460        C465   1.445       .  A
C460       C2524   1.476       .  S
C461        C462   1.380       .  A
C461        H466   1.087       .  S
C462        C463   1.372       .  A
C462       C2156   1.416       .  S
C463        C464   1.386       .  A
C463        H467   1.080       .  S
C464        C465   1.451       .  A
C464       C2152   1.514       .  S
C465        H468   1.081   1_455  S
C469        C470   1.449       .  A
C469        C474   1.379       .  A
C469       C2147   1.526       .  S
C470        C471   1.448       .  A
C470        H475   1.081       .  S
C471        C472   1.409       .  A
C471       C2583   1.512       .  S
C472        C473   1.412       .  A
C472        H476   1.084       .  S
C473        C474   1.384       .  A
C473       C2143   1.476       .  S
C474        H477   1.072       .  S
C478        C479   1.408       .  A
C478        C483   1.398       .  A
C478       C2504   1.439       .  S
C479        C480   1.405       .  A
C479        H484   1.078       .  S
C480        C481   1.384       .  A
C480       C2139   1.466       .  S
C481        C482   1.384       .  A
C481        H485   1.086       .  S
C482        C483   1.397       .  A
C482       C2135   1.451       .  S
C483        H486   1.085       .  S
C487        C488   1.434       .  A
C487        C492   1.385       .  A
C487       C2131   1.509       .  S
C488        C489   1.431       .  A
C488        H493   1.078       .  S
C489        C490   1.421       .  A
C489       C2596   1.510       .  S
C490        C491   1.425       .  A
C490        H494   1.082       .  S
C491        C492   1.388       .  A
C491       C2128   1.494       .  S
C492        H495   1.072       .  S
C496        C497   1.385       .  A
C496        C501   1.405       .  A
C496       C2564   1.414       .  S
C497        C498   1.382       .  A
C497        H502   1.086       .  S
C498        C499   1.387       .  A
C498       C2123   1.446       .  S
C499        C500   1.388       .  A
C499        H503   1.073       .  S
C500        C501   1.404       .  A
C500       C2119   1.471       .  S
C501        H504   1.081       .  S
C505        C506   1.398       .  A
C505        C510   1.427       .  A
C505       C2593   1.470       .  S
C506        C507   1.398       .  A
C506        H511   1.084       .  S
C507        C508   1.388       .  A
C507       C2115   1.456       .  S
C508        C509   1.385       .  A
C508        H512   1.080       .  S
C509        C510   1.430       .  A
C509       C2111   1.500       .  S
C510        H513   1.078   1_554  S
C514        C515   1.381       .  A
C514        C519   1.388       .  A
C514       C2104   1.436       .  S
C515        C516   1.384       .  A
C515        H520   1.084       .  S
C516        C517   1.458       .  A
C516       C2107   1.530       .  S
C517        C518   1.457       .  A
C517        H521   1.082       .  S
C518        C519   1.390       .  A
C518       C2606   1.498       .  S
C519        H522   1.086       .  S
C523        C524   1.446       .  A
C523        C528   1.387       .  A
C523       C2095   1.529       .  S
C524        C525   1.441       .  A
C524        H529   1.073       .  S
C525        C526   1.407       .  A
C525       C2542   1.514       .  S
C526        C527   1.416       .  A
C526        H530   1.084       .  S
C527        C528   1.396       .  A
C527       C2100   1.483       .  S
C528        H531   1.069       .  S
C532        C533   1.394       .  A
C532        C537   1.389       .  A
C532       C2091   1.451       .  S
C533        C534   1.394       .  A
C533        H538   1.085   1_455  S
C534        C535   1.400       .  A
C534       C2618   1.427       .  S
C535        C536   1.402       .  A
C535        H539   1.084   1_545  S
C536        C537   1.396       .  A
C536       C2087   1.464       .  S
C537        H540   1.085       .  S
C541        C542   1.427       .  A
C541        C546   1.435       .  A
C541       C2077   1.518       .  S
C542        C543   1.429       .  A
C542        H547   1.083       .  S
C543        C544   1.382       .  A
C543       C2083   1.495       .  S
C544        C545   1.380       .  A
C544        H548   1.073       .  S
C545        C546   1.437       .  A
C545       C2079   1.509       .  S
C546        H549   1.079       .  S
C550        C551   1.407       .  A
C550        C555   1.403       .  A
C550       C2558   1.440       .  S
C551        C552   1.405       .  A
C551        H556   1.081       .  S
C552        C553   1.384       .  A
C552       C2073   1.466       .  S
C553        C554   1.386       .  A
C553        H557   1.085       .  S
C554        C555   1.400       .  A
C554       C2070   1.460       .  S
C555        H558   1.083       .  S
C559        C560   1.425       .  A
C559        C564   1.393       .  A
C559       C2065   1.499       .  S
C560        C561   1.418       .  A
C560        H565   1.082       .  S
C561        C562   1.417       .  A
C561       C2625   1.493       .  S
C562        C563   1.424       .  A
C562        H566   1.083       .  S
C563        C564   1.397       .  A
C563       C2061   1.497       .  S
C564        H567   1.071       .  S
C568        C569   1.395       .  A
C568        C573   1.387       .  A
C568       C2053   1.446       .  S
C569        C570   1.393       .  A
C569        H574   1.085   1_545  S
C570        C571   1.395       .  A
C570       C2616   1.421       .  S
C571        C572   1.397       .  A
C571        H575   1.085   1_554  S
C572        C573   1.388       .  A
C572       C2057   1.448       .  S
C573        H576   1.085       .  S
C577        C578   1.408       .  A
C577        C582   1.386       .  A
C577       C2049   1.469       .  S
C578        C579   1.404       .  A
C578        H583   1.084       .  S
C579        C580   1.453       .  A
C579       C2551   1.515       .  S
C580        C581   1.455       .  A
C580        H584   1.079       .  S
C581        C582   1.379       .  A
C581       C2045   1.532       .  S
C582        H585   1.072       .  S
C586        C587   1.400       .  A
C586        C591   1.415       .  A
C586       C2538   1.448       .  S
C587        C588   1.396       .  A
C587        H592   1.083       .  S
C588        C589   1.385       .  A
C588       C2041   1.457       .  S
C589        C590   1.388       .  A
C589        H593   1.084       .  S
C590        C591   1.413       .  A
C590       C2037   1.482       .  S
C591        H594   1.080       .  S
C595        C596   1.417       .  A
C595        C600   1.401       .  A
C595       C2634   1.454       .  S
C596        C597   1.419       .  A
C596        H601   1.083       .  S
C597        C598   1.381       .  A
C597       C2033   1.481       .  S
C598        C599   1.386       .  A
C598        H602   1.077       .  S
C599        C600   1.397       .  A
C599       C2029   1.464       .  S
C600        H603   1.080       .  S
C604        C605   1.432       .  A
C604        C609   1.396       .  A
C604       C2500   1.478       .  S
C605        C606   1.436       .  A
C605        H610   1.074       .  S
C606        C607   1.386       .  A
C606       C2021   1.510       .  S
C607        C608   1.391       .  A
C607        H611   1.079       .  S
C608        C609   1.396       .  A
C608       C2025   1.454       .  S
C609        H612   1.085       .  S
C613        C614   1.374       .  A
C613        C618   1.373       .  A
C613       C2013   1.410       .  S
C614        C615   1.383       .  A
C614        H619   1.080       .  S
C615        C616   1.458       .  A
C615       C2017   1.522       .  S
C616        C617   1.453       .  A
C616        H620   1.081       .  S
C617        C618   1.376       .  A
C617       C2610   1.480       .  S
C618        H621   1.088       .  S
C622        C623   1.410       .  A
C622        C627   1.394       .  A
C622       C2005   1.476       .  S
C623        C624   1.404       .  A
C623        H628   1.083       .  S
C624        C625   1.394       .  A
C624       C2636   1.438       .  S
C625        C626   1.396       .  A
C625        H629   1.085       .  S
C626        C627   1.397       .  A
C626       C2009   1.461       .  S
C627        H630   1.082       .  S
C631        C632   1.439       .  A
C631        C636   1.390       .  A
C631       C1997   1.496       .  S
C632        C633   1.433       .  A
C632        H637   1.082       .  S
C633        C634   1.379       .  A
C633       C2574   1.458       .  S
C634        C635   1.381       .  A
C634        H638   1.087       .  S
C635        C636   1.369       .  A
C635       C2002   1.418       .  S
C636        H639   1.082       .  S
C640        C641   1.398       .  A
C640        C645   1.395       .  A
C640       C1989   1.462       .  S
C641        C642   1.395       .  A
C641        H646   1.085       .  S
C642        C643   1.430       .  A
C642       C2549   1.478       .  S
C643        C644   1.435       .  A
C643        H647   1.074       .  S
C644        C645   1.390       .  A
C644       C1993   1.512       .  S
C645        H648   1.080       .  S
C649        C650   1.411       .  A
C649        C654   1.394       .  A
C649       C1981   1.480       .  S
C650        C651   1.410       .  A
C650        H655   1.078       .  S
C651        C652   1.393       .  A
C651       C2516   1.445       .  S
C652        C653   1.396       .  A
C652        H656   1.085       .  S
C653        C654   1.394       .  A
C653       C1985   1.456       .  S
C654        H657   1.084       .  S
C658        C659   1.392       .  A
C658        C663   1.417       .  A
C658       C1977   1.489       .  S
C659        C660   1.392       .  A
C659        H664   1.070       .  S
C660        C661   1.429       .  A
C660       C1973   1.503       .  S
C661        C662   1.424       .  A
C661        H665   1.083       .  S
C662        C663   1.411       .  A
C662       C1971   1.489       .  S
C663        H666   1.084       .  S
C667        C668   1.398       .  A
C667        C672   1.432       .  A
C667       C1967   1.511       .  S
C668        C669   1.398       .  A
C668        H673   1.071       .  S
C669        C670   1.425       .  A
C669       C1963   1.502       .  S
C670        C671   1.417       .  A
C670        H674   1.083       .  S
C671        C672   1.425       .  A
C671       C1962   1.502       .  S
C672        H675   1.083       .  S
C676        C677   1.394       .  A
C676        C681   1.390       .  A
C676       C1953   1.450   1_455  S
C677        C678   1.393       .  A
C677        H682   1.084   1_455  S
C678        C679   1.396       .  A
C678       C2614   1.419       .  S
C679        C680   1.398       .  A
C679        H683   1.085   1_554  S
C680        C681   1.392       .  A
C680       C1958   1.456       .  S
C681        H684   1.084       .  S
C685        C686   1.395       .  A
C685        C690   1.398       .  A
C685       C1949   1.456       .  S
C686        C687   1.392       .  A
C686        H691   1.085       .  S
C687        C688   1.402       .  A
C687       C2662   1.437       .  S
C688        C689   1.411       .  A
C688        H692   1.083       .  S
C689        C690   1.396       .  A
C689       C1945   1.476       .  S
C690        H693   1.082       .  S
C694        C695   1.440       .  A
C694        C699   1.393       .  A
C694       C1941   1.514       .  S
C695        C696   1.433       .  A
C695        H700   1.077       .  S
C696        C697   1.394       .  A
C696       C2496   1.482       .  S
C697        C698   1.398       .  A
C697        H701   1.085       .  S
C698        C699   1.396       .  A
C698       C1937   1.457       .  S
C699        H702   1.081       .  S
C703        C704   1.410       .  A
C703        C708   1.409       .  A
C703       C2528   1.465       .  S
C704        C705   1.410       .  A
C704        H709   1.080       .  S
C705        C706   1.396       .  A
C705       C1933   1.484       .  S
C706        C707   1.394       .  A
C706        H710   1.078       .  S
C707        C708   1.415       .  A
C707       C1929   1.486       .  S
C708        H711   1.084       .  S
C712        C713   1.386       .  A
C712        C717   1.383       .  A
C712       C1921   1.436       .  S
C713        C714   1.386       .  A
C713        H718   1.086       .  S
C714        C715   1.420       .  A
C714       C2502   1.445       .  S
C715        C716   1.424       .  A
C715        H719   1.083       .  S
C716        C717   1.397       .  A
C716       C1926   1.488       .  S
C717        H720   1.082       .  S
C721        C722   1.401       .  A
C721        C726   1.384       .  A
C721       C1917   1.469       .  S
C722        C723   1.405       .  A
C722        H727   1.081       .  S
C723        C724   1.399       .  A
C723       C2508   1.426       .  S
C724        C725   1.393       .  A
C724        H728   1.083       .  S
C725        C726   1.385       .  A
C725       C1913   1.459       .  S
C726        H729   1.078       .  S
C730        C731   1.435       .  A
C730        C735   1.431       .  A
C730       C2640   1.520       .  S
C731        C732   1.436       .  A
C731        H736   1.082       .  S
C732        C733   1.381       .  A
C732       C1910   1.508       .  S
C733        C734   1.382       .  A
C733        H737   1.074       .  S
C734        C735   1.432       .  A
C734       C1905   1.503       .  S
C735        H738   1.082       .  S
C739        C740   1.408       .  A
C739        C744   1.403       .  A
C739       C2514   1.444       .  S
C740        C741   1.406       .  A
C740        H745   1.082       .  S
C741        C742   1.386       .  A
C741       C1901   1.468       .  S
C742        C743   1.387       .  A
C742        H746   1.085       .  S
C743        C744   1.401       .  A
C743       C1897   1.463       .  S
C744        H747   1.082       .  S
C748        C749   1.446       .  A
C748        C753   1.415       .  A
C748       C2587   1.520       .  S
C749        C750   1.448       .  A
C749        H754   1.076       .  S
C750        C751   1.380       .  A
C750       C1893   1.525       .  S
C751        C752   1.385       .  A
C751        H755   1.074       .  S
C752        C753   1.418       .  A
C752       C1889   1.481       .  S
C753        H756   1.083       .  S
C757        C758   1.438       .  A
C757        C762   1.393       .  A
C757       C1885   1.506       .  S
C758        C759   1.431       .  A
C758        H763   1.083       .  S
C759        C760   1.387       .  A
C759       C2568   1.465       .  S
C760        C761   1.386       .  A
C760        H764   1.086       .  S
C761        C762   1.389       .  A
C761       C1882   1.441       .  S
C762        H765   1.081       .  S
C766        C767   1.398       .  A
C766        C771   1.412       .  A
C766       C1878   1.487       .  S
C767        C768   1.394       .  A
C767        H772   1.080       .  S
C768        C769   1.404       .  A
C768       C1873   1.472       .  S
C769        C770   1.398       .  A
C769        H773   1.085       .  S
C770        C771   1.411       .  A
C770       C2663   1.453       .  S
C771        H774   1.079       .  S
C775        C776   1.397       .  A
C775        C780   1.414       .  A
C775       C2576   1.449       .  S
C776        C777   1.398       .  A
C776        H781   1.085       .  S
C777        C778   1.385       .  A
C777       C1869   1.449       .  S
C778        C779   1.383       .  A
C778        H782   1.086       .  S
C779        C780   1.410       .  A
C779       C1866   1.478       .  S
C780        H783   1.073       .  S
C784        C785   1.427       .  A
C784        C789   1.425       .  A
C784       C2600   1.504       .  S
C785        C786   1.428       .  A
C785        H790   1.078       .  S
C786        C787   1.379       .  A
C786       C1861   1.498       .  S
C787        C788   1.383       .  A
C787        H791   1.073       .  S
C788        C789   1.427       .  A
C788       C1857   1.493       .  S
C789        H792   1.083       .  S
C793        C794   1.433       .  A
C793        C798   1.388       .  A
C793       C1850   1.501       .  S
C794        C795   1.432       .  A
C794        H799   1.083       .  S
C795        C796   1.392       .  A
C795       C2590   1.462       .  S
C796        C797   1.388       .  A
C796        H800   1.085       .  S
C797        C798   1.386       .  A
C797       C1853   1.447       .  S
C798        H801   1.082       .  S
C802        C803   1.428       .  A
C802        C807   1.409       .  A
C802       C2656   1.485       .  S
C803        C804   1.431       .  A
C803        H808   1.080       .  S
C804        C805   1.386       .  A
C804       C1845   1.505       .  S
C805        C806   1.389       .  A
C805        H809   1.078       .  S
C806        C807   1.407       .  A
C806       C1841   1.475       .  S
C807        H810   1.081       .  S
C811        C812   1.404       .  A
C811        C816   1.389       .  A
C811       C1838   1.467       .  S
C812        C813   1.405       .  A
C812        H817   1.080       .  S
C813        C814   1.396       .  A
C813       C2518   1.434       .  S
C814        C815   1.395       .  A
C814        H818   1.085       .  S
C815        C816   1.387       .  A
C815       C1833   1.452       .  S
C816        H819   1.085       .  S
C820        C821   1.422       .  A
C820        C825   1.441       .  A
C820       C2642   1.523       .  S
C821        C822   1.426       .  A
C821        H826   1.083       .  S
C822        C823   1.390       .  A
C822       C1825   1.498       .  S
C823        C824   1.386       .  A
C823        H827   1.071       .  S
C824        C825   1.444       .  A
C824       C1829   1.523       .  S
C825        H828   1.080       .  S
C829        C830   1.431       .  A
C829        C834   1.431       .  A
C829       C2638   1.516       .  S
C830        C831   1.433       .  A
C830        H835   1.083       .  S
C831        C832   1.382       .  A
C831       C1821   1.504       .  S
C832        C833   1.383       .  A
C832        H836   1.073       .  S
C833        C834   1.432       .  A
C833       C1817   1.503       .  S
C834        H837   1.082       .  S
C838        C839   1.406       .  A
C838        C843   1.390       .  A
C838       C1813   1.471       .  S
C839        C840   1.408       .  A
C839        H844   1.078       .  S
C840        C841   1.395       .  A
C840       C2532   1.438       .  S
C841        C842   1.397       .  A
C841        H845   1.085       .  S
C842        C843   1.387       .  A
C842       C1809   1.453       .  S
C843        H846   1.085       .  S
C847        C848   1.396       .  A
C847        C852   1.400       .  A
C847       C1805   1.466       .  S
C848        C849   1.391       .  A
C848        H853   1.080       .  S
C849        C850   1.432       .  A
C849       C1801   1.506       .  S
C850        C851   1.426       .  A
C850        H854   1.081       .  S
C851        C852   1.398       .  A
C851       C2598   1.473       .  S
C852        H855   1.085       .  S
C856        C857   1.392       .  A
C856        C861   1.394       .  A
C856       C1793   1.452       .  S
C857        C858   1.391       .  A
C857        H862   1.085       .  S
C858        C859   1.404       .  A
C858       C2535   1.436       .  S
C859        C860   1.413       .  A
C859        H863   1.083       .  S
C860        C861   1.396       .  A
C860       C1797   1.479       .  S
C861        H864   1.080       .  S
C865        C866   1.434       .  A
C865        C870   1.386       .  A
C865       C1785   1.507       .  S
C866        C867   1.431       .  A
C866        H871   1.082       .  S
C867        C868   1.414       .  A
C867       C2578   1.498       .  S
C868        C869   1.418       .  A
C868        H872   1.084       .  S
C869        C870   1.389       .  A
C869       C1790   1.488       .  S
C870        H873   1.070       .  S
C874        C875   1.417       .  A
C874        C879   1.389       .  A
C874       C1777   1.482       .  S
C875        C876   1.419       .  A
C875        H880   1.083       .  S
C876        C877   1.395       .  A
C876       C2665   1.447       .  S
C877        C878   1.388       .  A
C877        H881   1.075       .  S
C878        C879   1.376       .  A
C878       C1781   1.450       .  S
C879        H882   1.082       .  S
C883        C884   1.409       .  A
C883        C888   1.391       .  A
C883       C1769   1.474       .  S
C884        C885   1.411       .  A
C884        H889   1.083       .  S
C885        C886   1.397       .  A
C885       C2553   1.437       .  S
C886        C887   1.390       .  A
C886        H890   1.076       .  S
C887        C888   1.378       .  A
C887       C1773   1.452       .  S
C888        H891   1.081       .  S
C892        C893   1.421       .  A
C892        C897   1.391       .  A
C892       C1762   1.492       .  S
C893        C894   1.414       .  A
C893        H898   1.084       .  S
C894        C895   1.403       .  A
C894       C2652   1.466       .  S
C895        C896   1.409       .  A
C895        H899   1.084       .  S
C896        C897   1.397       .  A
C896       C1765   1.480       .  S
C897        H900   1.069       .  S
C901        C902   1.427       .  A
C901        C906   1.413       .  A
C901       C2586   1.499       .  S
C902        C903   1.434       .  A
C902        H907   1.082       .  S
C903        C904   1.395       .  A
C903       C1757   1.512       .  S
C904        C905   1.397       .  A
C904        H908   1.071       .  S
C905        C906   1.420       .  A
C905       C1753   1.495       .  S
C906        H909   1.084       .  S
C910        C911   1.390       .  A
C910        C915   1.397       .  A
C910       C1745   1.452       .  S
C911        C912   1.390       .  A
C911        H916   1.085       .  S
C912        C913   1.399       .  A
C912       C1749   1.446       .  S
C913        C914   1.392       .  A
C913        H917   1.085       .  S
C914        C915   1.394       .  A
C914       C2562   1.425       .  S
C915        H918   1.078       .  S
C919        C920   1.452       .  A
C919        C924   1.389       .  A
C919       C1737   1.522       .  S
C920        C921   1.448       .  A
C920        H925   1.082       .  S
C921        C922   1.386       .  A
C921       C2602   1.487       .  S
C922        C923   1.387       .  A
C922        H926   1.086       .  S
C923        C924   1.383       .  A
C923       C1741   1.432       .  S
C924        H927   1.083       .  S
C928        C929   1.415       .  A
C928        C933   1.394       .  A
C928       C1729   1.492       .  S
C929        C930   1.415       .  A
C929        H934   1.079       .  S
C930        C931   1.421       .  A
C930       C2649   1.485       .  S
C931        C932   1.425       .  A
C931        H935   1.082       .  S
C932        C933   1.390       .  A
C932       C1733   1.499       .  S
C933        H936   1.078       .  S
C937        C938   1.399       .  A
C937        C942   1.438       .  A
C937       C2612   1.499       .  S
C938        C939   1.404       .  A
C938        H943   1.085       .  S
C939        C940   1.394       .  A
C939       C1725   1.458       .  S
C940        C941   1.389       .  A
C940        H944   1.082       .  S
C941        C942   1.443       .  A
C941       C1721   1.521       .  S
C942        H945   1.066       .  S
C946        C947   1.434       .  A
C946        C951   1.400       .  A
C946       C2525   1.481       .  S
C947        C948   1.437       .  A
C947        H952   1.079       .  S
C948        C949   1.385       .  A
C948       C1718   1.511       .  S
C949        C950   1.391       .  A
C949        H953   1.081       .  S
C950        C951   1.400       .  A
C950       C1713   1.461       .  S
C951        H954   1.085       .  S
O955        C982   1.260       .  A
O955       Mn981   2.014       .  S
C956       C2406   1.453       .  S
C956        O989   1.267       .  A
C956        O986   1.265       .  A
O957       Mn964   2.168       .  S
O957       Mn975   2.078       .  S
O957       Mn979   2.178   1_655  S
O957       Mn981   2.088       .  S
O958        C968   1.263   1_655  A
O958       Mn992   2.045       .  S
O959        C982   1.267       .  A
O959       Mn975   2.071       .  S
O960        C987   1.269       .  A
O960       Mn979   2.217       .  S
O961       Mn992   1.910       .  S
O961       Mn981   1.908       .  S
O961        C977   1.199       .  S
C962       C1964   1.489       .  S
C962        O965   1.264       .  A
C962        O988   1.203       .  S
O963       Mn983   2.086       .  S
O963       Mn964   2.181   1_455  S
O963       Mn997   2.088       .  S
O963       Mn979   2.176       .  S
Mn964       O993   2.146       .  S
Mn964       O969   2.214       .  S
Mn964       O996   2.192       .  S
Mn964       O970   2.209       .  S
O965       Mn979   2.169       .  S
O966        C968   1.267       .  A
O966       Mn973   2.076       .  S
C967       C1978   1.473   1_655  S
C967        O993   1.260       .  A
C967        O980   1.203   1_655  S
C968       C1954   1.449       .  S
O969        C994   1.269       .  A
O970       Mn973   2.099   1_655  S
O970       Mn992   2.081       .  S
O970       Mn979   2.206   1_655  S
O971       Mn975   1.930       .  S
O971       Mn997   1.906   1_655  S
O971        C994   1.189       .  S
C972       C2160   1.450       .  S
C972        O998   1.264       .  A
C972        O974   1.268       .  A
Mn973       O986   2.066   1_455  S
Mn973       O988   1.914       .  S
Mn973       O980   1.924       .  S
O974       Mn997   2.074       .  S
Mn975       O991   2.075       .  S
Mn975       O985   1.910       .  S
O976        C978   1.260       .  A
O976       Mn981   2.035       .  S
C977       C1734   1.484       .  S
C977        O995   1.263       .  A
C978       C1726   1.441       .  S
C978        O991   1.270       .  A
Mn979       O995   2.174   1_455  S
O980       Mn983   1.928       .  S
Mn981       O999   1.893       .  S
C982       C1742   1.430       .  S
Mn983       O990   2.064       .  S
Mn983       O998   2.050       .  S
Mn983       O988   1.920       .  S
C984       C1986   1.448       .  S
C984        O990   1.266       .  A
C984       O1000   1.266       .  A
O985       Mn997   1.910   1_655  S
O985        C987   1.186   1_655  S
C987       C2151   1.497       .  S
O989       Mn992   2.075       .  S
Mn992       O999   1.906       .  S
C994       C1717   1.501       .  S
O996       C1001   1.265       .  A
Mn997      O1000   2.066       .  S
O999       C1001   1.192       .  S
C1001      C2398   1.489       .  S
O1002      C1029   1.270       .  A
O1002     Mn1028   2.079       .  S
C1003      C1778   1.452       .  S
C1003      O1036   1.276       .  A
C1003      O1033   1.259       .  A
O1004     Mn1011   2.171       .  S
O1004     Mn1022   2.082       .  S
O1004     Mn1026   2.172       .  S
O1004     Mn1028   2.092       .  S
O1005      C1015   1.267       .  A
O1005     Mn1039   2.075       .  S
O1006      C1029   1.262       .  A
O1006     Mn1022   2.035       .  S
O1007      C1034   1.274       .  A
O1007     Mn1026   2.239       .  S
O1008     Mn1039   1.947       .  S
O1008     Mn1028   1.936       .  S
O1008      C1024   1.200       .  S
C1009      C2418   1.482       .  S
C1009      O1012   1.267       .  A
C1009      O1035   1.193       .  S
O1010     Mn1030   2.088       .  S
O1010     Mn1011   2.186       .  S
O1010     Mn1044   2.078       .  S
O1010     Mn1026   2.191       .  S
Mn1011     O1040   2.165       .  S
Mn1011     O1016   2.233       .  S
Mn1011     O1043   2.197       .  S
Mn1011     O1017   2.218       .  S
O1012     Mn1026   2.188       .  S
O1013      C1015   1.276       .  A
O1013     Mn1020   2.104       .  S
C1014      C1826   1.479       .  S
C1014      O1040   1.264       .  A
C1014      O1027   1.199       .  S
C1015      C2426   1.472       .  S
O1016      C1041   1.273       .  A
O1017     Mn1020   2.097       .  S
O1017     Mn1039   2.086       .  S
O1017     Mn1026   2.214       .  S
O1018     Mn1022   1.907       .  S
O1018     Mn1044   1.905       .  S
O1018      C1041   1.187       .  S
C1019      C1714   1.442       .  S
C1019      O1045   1.263       .  A
C1019      O1021   1.268       .  A
Mn1020     O1033   2.048       .  S
Mn1020     O1035   1.911       .  S
Mn1020     O1027   1.926       .  S
O1021     Mn1044   2.067       .  S
Mn1022     O1038   2.064       .  S
Mn1022     O1032   1.904       .  S
O1023      C1025   1.267       .  A
O1023     Mn1028   2.066       .  S
C1024      C1758   1.497       .  S
C1024      O1042   1.270       .  A
C1025      C2278   1.449       .  S
C1025      O1038   1.266       .  A
Mn1026     O1042   2.192       .  S
O1027     Mn1030   1.918       .  S
Mn1028     O1046   1.907       .  S
C1029      C1750   1.448       .  S
Mn1030     O1037   2.074       .  S
Mn1030     O1045   2.052       .  S
Mn1030     O1035   1.910       .  S
C1031      C1834   1.446       .  S
C1031      O1037   1.268       .  A
C1031      O1047   1.263       .  A
O1032     Mn1044   1.907       .  S
O1032      C1034   1.188       .  S
C1034      C1722   1.514       .  S
O1036     Mn1039   2.101       .  S
Mn1039     O1046   1.916       .  S
C1041      C2270   1.508       .  S
O1043      C1048   1.267       .  A
Mn1044     O1047   2.044       .  S
O1046      C1048   1.192       .  S
C1048      C1786   1.490       .  S
O1049      C1076   1.261       .  A
O1049     Mn1075   2.025       .  S
C1050      C2410   1.448       .  S
C1050      O1083   1.263   1_565  A
C1050      O1080   1.265       .  A
O1051     Mn1058   2.169   1_545  S
O1051     Mn1069   2.079       .  S
O1051     Mn1073   2.154       .  S
O1051     Mn1075   2.066       .  S
O1052      C1062   1.270       .  A
O1052     Mn1086   2.081       .  S
O1053      C1076   1.271       .  A
O1053     Mn1069   2.083       .  S
O1054      C1081   1.252       .  A
O1054     Mn1073   2.139       .  S
O1055     Mn1086   1.933       .  S
O1055     Mn1075   1.938       .  S
O1055      C1071   1.202       .  S
C1056      C1766   1.461       .  S
C1056      O1059   1.252   1_565  A
C1056      O1082   1.208       .  S
O1057     Mn1077   2.077       .  S
O1057     Mn1058   2.184       .  S
O1057     Mn1091   2.091       .  S
O1057     Mn1073   2.182   1_565  S
Mn1058     O1087   2.148       .  S
Mn1058     O1063   2.151       .  S
Mn1058     O1090   2.175       .  S
Mn1058     O1064   2.191   1_565  S
O1059     Mn1073   2.109       .  S
O1060      C1062   1.263       .  A
O1060     Mn1067   2.034   1_545  S
C1061      C2402   1.466       .  S
C1061      O1087   1.254       .  A
C1061      O1074   1.197       .  S
C1062      C2054   1.450       .  S
O1063      C1088   1.261       .  A
O1064     Mn1067   2.069   1_545  S
O1064     Mn1086   2.080       .  S
O1064     Mn1073   2.164       .  S
O1065     Mn1069   1.934   1_565  S
O1065     Mn1091   1.930       .  S
O1065      C1088   1.205       .  S
C1066      C1774   1.435       .  S
C1066      O1092   1.262       .  A
C1066      O1068   1.267       .  A
Mn1067     O1080   2.067       .  S
Mn1067     O1082   1.922       .  S
Mn1067     O1074   1.906       .  S
O1068     Mn1091   2.082       .  S
Mn1069     O1085   2.045       .  S
Mn1069     O1079   1.924       .  S
O1070      C1072   1.269       .  A
O1070     Mn1075   2.074       .  S
C1071      C2062   1.481       .  S
C1071      O1089   1.259       .  A
C1072      C2026   1.442       .  S
C1072      O1085   1.264       .  A
Mn1073     O1089   2.153       .  S
O1074     Mn1077   1.896       .  S
Mn1075     O1093   1.896       .  S
C1076      C2136   1.443       .  S
Mn1077     O1084   2.060       .  S
Mn1077     O1092   2.034       .  S
Mn1077     O1082   1.931       .  S
C1078      C1746   1.453       .  S
C1078      O1084   1.266       .  A
C1078      O1094   1.268       .  A
O1079     Mn1091   1.912   1_545  S
O1079      C1081   1.195       .  S
C1081      C2144   1.459       .  S
O1083     Mn1086   2.057       .  S
Mn1086     O1093   1.891       .  S
C1088      C1754   1.481       .  S
O1090      C1095   1.257   1_565  A
Mn1091     O1094   2.080       .  S
O1093      C1095   1.189       .  S
C1095      C2034   1.469       .  S
O1096      C1123   1.268       .  A
O1096     Mn1122   2.071       .  S
C1097      C1782   1.428       .  S
C1097      O1130   1.266       .  A
C1097      O1127   1.265       .  A
O1098     Mn1105   2.179       .  S
O1098     Mn1116   2.085       .  S
O1098     Mn1120   2.165       .  S
O1098     Mn1122   2.102       .  S
O1099      C1109   1.269       .  A
O1099     Mn1133   2.069       .  S
O1100      C1123   1.268       .  A
O1100     Mn1116   2.065       .  S
O1101      C1128   1.258       .  A
O1101     Mn1120   2.135       .  S
O1102     Mn1133   1.930       .  S
O1102     Mn1122   1.915       .  S
O1102      C1118   1.194       .  S
C1103      C1890   1.464       .  S
C1103      O1106   1.253       .  A
C1103      O1129   1.192       .  S
O1104     Mn1124   2.083       .  S
O1104     Mn1105   2.201       .  S
O1104     Mn1138   2.093       .  S
O1104     Mn1120   2.220       .  S
Mn1105     O1134   2.145       .  S
Mn1105     O1110   2.172       .  S
Mn1105     O1137   2.189       .  S
Mn1105     O1111   2.184       .  S
O1106     Mn1120   2.155       .  S
O1107      C1109   1.261       .  A
O1107     Mn1114   2.054       .  S
C1108      C1789   1.469       .  S
C1108      O1134   1.260       .  A
C1108      O1121   1.202       .  S
C1109      C2490   1.440       .  S
O1110      C1135   1.259       .  A
O1111     Mn1114   2.093       .  S
O1111     Mn1133   2.084       .  S
O1111     Mn1120   2.179       .  S
O1112     Mn1116   1.925       .  S
O1112     Mn1138   1.905       .  S
O1112      C1135   1.201       .  S
C1113      C1898   1.448       .  S
C1113      O1139   1.267       .  A
C1113      O1115   1.261       .  A
Mn1114     O1127   2.046       .  S
Mn1114     O1129   1.886       .  S
Mn1114     O1121   1.930       .  S
O1115     Mn1138   2.045       .  S
Mn1116     O1132   2.053       .  S
Mn1116     O1126   1.938       .  S
O1117      C1119   1.262       .  A
O1117     Mn1122   2.040       .  S
C1118      C2482   1.497       .  S
C1118      O1136   1.265       .  A
C1119      C1854   1.427       .  S
C1119      O1132   1.263       .  A
Mn1120     O1136   2.194       .  S
O1121     Mn1124   1.933       .  S
Mn1122     O1140   1.914       .  S
C1123      C1806   1.443       .  S
Mn1124     O1131   2.075       .  S
Mn1124     O1139   2.078       .  S
Mn1124     O1129   1.899       .  S
C1125      C2341   1.464       .  S
C1125      O1131   1.268       .  A
C1125      O1141   1.272       .  A
O1126     Mn1138   1.930       .  S
O1126      C1128   1.208       .  S
C1128      C1798   1.472       .  S
O1130     Mn1133   2.061       .  S
Mn1133     O1140   1.909       .  S
C1135      C2334   1.492       .  S
O1137      C1142   1.264       .  A
Mn1138     O1141   2.094       .  S
O1140      C1142   1.193       .  S
C1142      C1846   1.488       .  S
O1143      C1170   1.267       .  A
O1143     Mn1169   2.060       .  S
C1144      C1957   1.444       .  S
C1144      O1177   1.266   1_554  A
C1144      O1174   1.267       .  A
O1145     Mn1152   2.192   1_556  S
O1145     Mn1163   2.087       .  S
O1145     Mn1167   2.179       .  S
O1145     Mn1169   2.086       .  S
O1146      C1156   1.266       .  A
O1146     Mn1180   2.071       .  S
O1147      C1170   1.267       .  A
O1147     Mn1163   2.067       .  S
O1148      C1175   1.269       .  A
O1148     Mn1167   2.201       .  S
O1149     Mn1180   1.912       .  S
O1149     Mn1169   1.919       .  S
O1149      C1165   1.193       .  S
C1150      C2084   1.478       .  S
C1150      O1153   1.263   1_554  A
C1150      O1176   1.189       .  S
O1151     Mn1171   2.090       .  S
O1151     Mn1152   2.193       .  S
O1151     Mn1185   2.078       .  S
O1151     Mn1167   2.209   1_554  S
Mn1152     O1181   2.180       .  S
Mn1152     O1157   2.172       .  S
Mn1152     O1184   2.187       .  S
Mn1152     O1158   2.173   1_554  S
O1153     Mn1167   2.188       .  S
O1154      C1156   1.263       .  A
O1154     Mn1161   2.044   1_556  S
C1155      C1968   1.495       .  S
C1155      O1181   1.267       .  A
C1155      O1168   1.202       .  S
C1156      C2474   1.445       .  S
O1157      C1182   1.261       .  A
O1158     Mn1161   2.087   1_556  S
O1158     Mn1180   2.094       .  S
O1158     Mn1167   2.193       .  S
O1159     Mn1163   1.908   1_554  S
O1159     Mn1185   1.911       .  S
O1159      C1182   1.195       .  S
C1160      C2074   1.457       .  S
C1160      O1186   1.274       .  A
C1160      O1162   1.259       .  A
Mn1161     O1174   2.065       .  S
Mn1161     O1176   1.901       .  S
Mn1161     O1168   1.922       .  S
O1162     Mn1185   2.032       .  S
Mn1163     O1179   2.032       .  S
Mn1163     O1173   1.903       .  S
O1164      C1166   1.268       .  A
O1164     Mn1169   2.080       .  S
C1165      C2466   1.502       .  S
C1165      O1183   1.271       .  A
C1166      C1810   1.445       .  S
C1166      O1179   1.260       .  A
Mn1167     O1183   2.209       .  S
O1168     Mn1171   1.934       .  S
Mn1169     O1187   1.917       .  S
C1170      C1794   1.449       .  S
Mn1171     O1178   2.039       .  S
Mn1171     O1186   2.100       .  S
Mn1171     O1176   1.902       .  S
C1172      C2120   1.431       .  S
C1172      O1178   1.259       .  A
C1172      O1188   1.271       .  A
O1173     Mn1185   1.915   1_556  S
O1173      C1175   1.195       .  S
C1175      C1802   1.496       .  S
O1177     Mn1180   2.059       .  S
Mn1180     O1187   1.912       .  S
C1182      C2127   1.478       .  S
O1184      C1189   1.264   1_554  A
Mn1185     O1188   2.075       .  S
O1187      C1189   1.191       .  S
C1189      C1818   1.484       .  S
O1190      C1217   1.265       .  A
O1190     Mn1216   2.071       .  S
C1191      C2458   1.432       .  S
C1191      O1224   1.261       .  A
C1191      O1221   1.270       .  A
O1192     Mn1199   2.217       .  S
O1192     Mn1210   2.085       .  S
O1192     Mn1214   2.218       .  S
O1192     Mn1216   2.085       .  S
O1193      C1203   1.272       .  A
O1193     Mn1227   2.077       .  S
O1194      C1217   1.278       .  A
O1194     Mn1210   2.104       .  S
O1195      C1222   1.263       .  A
O1195     Mn1214   2.168       .  S
O1196     Mn1227   1.923       .  S
O1196     Mn1216   1.914       .  S
O1196      C1212   1.192       .  S
C1197      C1830   1.504       .  S
C1197      O1200   1.274       .  A
C1197      O1223   1.191       .  S
O1198     Mn1218   2.093       .  S
O1198     Mn1199   2.180       .  S
O1198     Mn1232   2.084       .  S
O1198     Mn1214   2.194       .  S
Mn1199     O1228   2.215       .  S
Mn1199     O1204   2.160       .  S
Mn1199     O1231   2.175       .  S
Mn1199     O1205   2.175       .  S
O1200     Mn1214   2.220       .  S
O1201      C1203   1.270       .  A
O1201     Mn1208   2.080       .  S
C1202      C2450   1.496       .  S
C1202      O1228   1.269       .  A
C1202      O1215   1.186       .  S
C1203      C1842   1.456       .  S
O1204      C1229   1.262       .  A
O1205     Mn1208   2.079       .  S
O1205     Mn1227   2.084       .  S
O1205     Mn1214   2.168       .  S
O1206     Mn1210   1.921       .  S
O1206     Mn1232   1.936       .  S
O1206      C1229   1.203       .  S
C1207      C1837   1.453       .  S
C1207      O1233   1.270       .  A
C1207      O1209   1.266       .  A
Mn1208     O1221   2.073       .  S
Mn1208     O1223   1.927       .  S
Mn1208     O1215   1.925       .  S
O1209     Mn1232   2.066       .  S
Mn1210     O1226   2.055       .  S
Mn1210     O1220   1.928       .  S
O1211      C1213   1.277       .  A
O1211     Mn1216   2.104       .  S
C1212      C1849   1.490       .  S
C1212      O1230   1.269       .  A
C1213      C1865   1.466       .  S
C1213      O1226   1.262       .  A
Mn1214     O1230   2.204       .  S
O1215     Mn1218   1.911       .  S
Mn1216     O1234   1.926       .  S
C1217      C2298   1.472       .  S
Mn1218     O1225   2.100       .  S
Mn1218     O1233   2.078       .  S
Mn1218     O1223   1.936       .  S
C1219      C1934   1.464       .  S
C1219      O1225   1.272       .  A
C1219      O1235   1.271       .  A
O1220     Mn1232   1.919       .  S
O1220      C1222   1.197       .  S
C1222      C2306   1.477       .  S
O1224     Mn1227   2.052       .  S
Mn1227     O1234   1.913       .  S
C1229      C1925   1.477       .  S
O1231      C1236   1.262       .  A
Mn1232     O1235   2.077       .  S
O1234      C1236   1.192       .  S
C1236      C1858   1.476       .  S
O1237      C1264   1.266       .  A
O1237     Mn1263   2.046       .  S
C1238      C2442   1.451       .  S
C1238      O1271   1.267       .  A
C1238      O1268   1.267   1_556  A
O1239     Mn1246   2.187       .  S
O1239     Mn1257   2.083       .  S
O1239     Mn1261   2.180   1_556  S
O1239     Mn1263   2.086       .  S
O1240      C1250   1.257   1_556  A
O1240     Mn1274   2.024       .  S
O1241      C1264   1.265       .  A
O1241     Mn1257   2.063       .  S
O1242      C1269   1.266       .  A
O1242     Mn1261   2.190       .  S
O1243     Mn1274   1.917       .  S
O1243     Mn1263   1.914       .  S
O1243      C1259   1.212       .  S
C1244      C2066   1.488       .  S
C1244      O1247   1.258       .  A
C1244      O1270   1.190       .  S
O1245     Mn1265   2.065       .  S
O1245     Mn1246   2.149   1_554  S
O1245     Mn1279   2.090       .  S
O1245     Mn1261   2.153       .  S
Mn1246     O1275   2.143       .  S
Mn1246     O1251   2.188       .  S
Mn1246     O1278   2.114       .  S
Mn1246     O1252   2.193       .  S
O1247     Mn1261   2.190       .  S
O1248      C1250   1.266       .  A
O1248     Mn1255   2.083       .  S
C1249      C2006   1.473       .  S
C1249      O1275   1.258   1_554  A
C1249      O1262   1.206       .  S
C1250      C2058   1.450       .  S
O1251      C1276   1.258       .  A
O1252     Mn1255   2.089   1_556  S
O1252     Mn1274   2.083       .  S
O1252     Mn1261   2.215   1_556  S
O1253     Mn1257   1.905       .  S
O1253     Mn1279   1.888   1_556  S
O1253      C1276   1.185       .  S
C1254      C2103   1.428       .  S
C1254      O1280   1.266       .  A
C1254      O1256   1.259       .  A
Mn1255     O1268   2.071       .  S
Mn1255     O1270   1.901       .  S
Mn1255     O1262   1.924       .  S
O1256     Mn1279   2.012       .  S
Mn1257     O1273   2.074       .  S
Mn1257     O1267   1.911   1_556  S
O1258      C1260   1.255       .  A
O1258     Mn1263   2.011       .  S
C1259      C1874   1.464       .  S
C1259      O1277   1.255   1_556  A
C1260      C1870   1.437       .  S
C1260      O1273   1.266       .  A
Mn1261     O1277   2.117       .  S
O1262     Mn1265   1.936       .  S
Mn1263     O1281   1.924       .  S
C1264      C1881   1.438       .  S
Mn1265     O1272   1.985       .  S
Mn1265     O1280   2.067       .  S
Mn1265     O1270   1.889       .  S
C1266      C2014   1.428       .  S
C1266      O1272   1.258       .  A
C1266      O1282   1.263       .  A
O1267     Mn1279   1.910       .  S
O1267      C1269   1.194       .  S
C1269      C2112   1.488       .  S
O1271     Mn1274   2.072       .  S
Mn1274     O1281   1.916       .  S
C1276      C1862   1.480       .  S
O1278      C1283   1.251       .  A
Mn1279     O1282   2.065       .  S
O1281      C1283   1.212       .  S
C1283      C2434   1.470       .  S
O1284      C1311   1.253       .  A
O1284     Mn1310   1.977       .  S
C1285      C2088   1.450       .  S
C1285      O1318   1.264       .  A
C1285      O1315   1.264   1_545  A
O1286     Mn1293   2.170       .  S
O1286     Mn1304   2.097       .  S
O1286     Mn1308   2.182   1_545  S
O1286     Mn1310   2.079       .  S
O1287      C1297   1.260       .  A
O1287     Mn1321   2.024   1_565  S
O1288      C1311   1.266       .  A
O1288     Mn1304   2.077       .  S
O1289      C1316   1.273       .  A
O1289     Mn1308   2.232       .  S
O1290     Mn1321   1.910       .  S
O1290     Mn1310   1.896       .  S
O1290      C1306   1.197       .  S
C1291      C2462   1.497       .  S
C1291      O1294   1.271       .  A
C1291      O1317   1.198       .  S
O1292     Mn1312   2.081       .  S
O1292     Mn1293   2.202   1_565  S
O1292     Mn1326   2.099       .  S
O1292     Mn1308   2.184       .  S
Mn1293     O1322   2.187   1_545  S
Mn1293     O1298   2.229       .  S
Mn1293     O1325   2.235       .  S
Mn1293     O1299   2.215   1_545  S
O1294     Mn1308   2.194       .  S
O1295      C1297   1.269       .  A
O1295     Mn1302   2.088       .  S
C1296      C1906   1.482       .  S
C1296      O1322   1.266       .  A
C1296      O1309   1.192       .  S
C1297      C2470   1.451       .  S
O1298      C1323   1.276       .  A
O1299     Mn1302   2.102       .  S
O1299     Mn1321   2.081   1_565  S
O1299     Mn1308   2.206       .  S
O1300     Mn1304   1.923       .  S
O1300     Mn1326   1.918   1_545  S
O1300      C1323   1.190       .  S
C1301      C1902   1.458       .  S
C1301      O1327   1.263       .  A
C1301      O1303   1.274       .  A
Mn1302     O1315   2.066       .  S
Mn1302     O1317   1.922       .  S
Mn1302     O1309   1.901       .  S
O1303     Mn1326   2.096       .  S
Mn1304     O1320   2.090       .  S
Mn1304     O1314   1.915   1_545  S
O1305      C1307   1.256       .  A
O1305     Mn1310   2.010       .  S
C1306      C1994   1.501       .  S
C1306      O1324   1.270   1_545  A
C1307      C2168   1.446       .  S
C1307      O1320   1.271       .  A
Mn1308     O1324   2.203       .  S
O1309     Mn1312   1.905       .  S
Mn1310     O1328   1.875       .  S
C1311      C2001   1.430       .  S
Mn1312     O1319   2.066       .  S
Mn1312     O1327   2.048       .  S
Mn1312     O1317   1.933       .  S
C1313      C1914   1.426       .  S
C1313      O1319   1.268       .  A
C1313      O1329   1.259       .  A
O1314     Mn1326   1.909       .  S
O1314      C1316   1.185       .  S
C1316      C1894   1.506       .  S
O1318     Mn1321   2.065       .  S
Mn1321     O1328   1.891       .  S
C1323      C2175   1.508       .  S
O1325      C1330   1.273       .  A
Mn1326     O1329   2.044       .  S
O1328      C1330   1.187       .  S
C1330      C2096   1.512       .  S
O1331      C1358   1.265       .  A
O1331     Mn1357   2.067       .  S
C1332      C2437   1.453       .  S
C1332      O1365   1.266   1_655  A
C1332      O1362   1.267       .  A
O1333     Mn1340   2.186   1_455  S
O1333     Mn1351   2.070       .  S
O1333     Mn1355   2.183       .  S
O1333     Mn1357   2.084       .  S
O1334      C1344   1.271       .  A
O1334     Mn1368   2.090       .  S
O1335      C1358   1.268       .  A
O1335     Mn1351   2.073       .  S
O1336      C1363   1.252       .  A
O1336     Mn1355   2.152       .  S
O1337     Mn1368   1.939       .  S
O1337     Mn1357   1.938       .  S
O1337      C1353   1.205       .  S
C1338      C1946   1.475       .  S
C1338      O1341   1.256   1_655  A
C1338      O1364   1.206       .  S
O1339     Mn1359   2.077       .  S
O1339     Mn1340   2.160       .  S
O1339     Mn1373   2.089       .  S
O1339     Mn1355   2.168   1_655  S
Mn1340     O1369   2.165       .  S
Mn1340     O1345   2.141       .  S
Mn1340     O1372   2.124       .  S
Mn1340     O1346   2.179   1_655  S
O1341     Mn1355   2.142       .  S
O1342      C1344   1.264   1_655  A
O1342     Mn1349   2.044       .  S
C1343      C2430   1.488       .  S
C1343      O1369   1.257       .  A
C1343      O1356   1.200       .  S
C1344      C2092   1.457       .  S
O1345      C1370   1.258       .  A
O1346     Mn1349   2.081   1_455  S
O1346     Mn1368   2.089       .  S
O1346     Mn1355   2.171       .  S
O1347     Mn1351   1.926   1_655  S
O1347     Mn1373   1.927       .  S
O1347      C1370   1.206       .  S
C1348      C1938   1.443       .  S
C1348      O1374   1.267       .  A
C1348      O1350   1.263       .  A
Mn1349     O1362   2.074       .  S
Mn1349     O1364   1.922       .  S
Mn1349     O1356   1.915       .  S
O1350     Mn1373   2.055       .  S
Mn1351     O1367   2.035       .  S
Mn1351     O1361   1.900       .  S
O1352      C1354   1.272       .  A
O1352     Mn1357   2.089       .  S
C1353      C2099   1.466       .  S
C1353      O1371   1.255       .  A
C1354      C2042   1.450       .  S
C1354      O1367   1.262       .  A
Mn1355     O1371   2.126       .  S
O1356     Mn1359   1.924       .  S
Mn1357     O1375   1.918       .  S
C1358      C2191   1.450       .  S
Mn1359     O1366   2.073       .  S
Mn1359     O1374   2.063       .  S
Mn1359     O1364   1.939       .  S
C1360      C1922   1.434       .  S
C1360      O1366   1.268       .  A
C1360      O1376   1.260       .  A
O1361     Mn1373   1.885   1_455  S
O1361      C1363   1.192       .  S
C1363      C2184   1.464       .  S
O1365     Mn1368   2.066       .  S
Mn1368     O1375   1.912       .  S
C1370      C1930   1.473       .  S
O1372      C1377   1.251   1_655  A
Mn1373     O1376   2.019       .  S
O1375      C1377   1.199       .  S
C1377      C2050   1.453       .  S
O1378      C1405   1.263   1_655  A
O1378     Mn1404   2.043       .  S
C1379      C2422   1.444       .  S
C1379      O1412   1.260   1_565  A
C1379      O1409   1.269       .  A
O1380     Mn1387   2.198   1_545  S
O1380     Mn1398   2.091   1_655  S
O1380     Mn1402   2.197   1_655  S
O1380     Mn1404   2.080       .  S
O1381      C1391   1.265       .  A
O1381     Mn1415   2.058       .  S
O1382      C1405   1.273       .  A
O1382     Mn1398   2.096       .  S
O1383      C1410   1.263       .  A
O1383     Mn1402   2.171       .  S
O1384     Mn1415   1.902       .  S
O1384     Mn1404   1.918       .  S
O1384      C1400   1.192       .  S
C1385      C1909   1.489       .  S
C1385      O1388   1.267   1_565  A
C1385      O1411   1.189       .  S
O1386     Mn1406   2.085       .  S
O1386     Mn1387   2.196   1_455  S
O1386     Mn1420   2.091       .  S
O1386     Mn1402   2.211   1_565  S
Mn1387     O1416   2.197       .  S
Mn1387     O1392   2.182       .  S
Mn1387     O1419   2.210       .  S
Mn1387     O1393   2.184       .  S
O1388     Mn1402   2.201       .  S
O1389      C1391   1.268   1_565  A
O1389     Mn1396   2.071       .  S
C1390      C2414   1.488       .  S
C1390      O1416   1.268       .  A
C1390      O1403   1.190       .  S
C1391      C1950   1.447       .  S
O1392      C1417   1.266       .  A
O1393     Mn1396   2.086       .  S
O1393     Mn1415   2.081   1_565  S
O1393     Mn1402   2.175   1_665  S
O1394     Mn1398   1.924   1_565  S
O1394     Mn1420   1.914       .  S
O1394      C1417   1.197   1_455  S
C1395      C1918   1.434       .  S
C1395      O1421   1.267       .  A
C1395      O1397   1.260       .  A
Mn1396     O1409   2.076       .  S
Mn1396     O1411   1.903   1_655  S
Mn1396     O1403   1.926       .  S
O1397     Mn1420   2.046       .  S
Mn1398     O1414   2.045   1_455  S
Mn1398     O1408   1.918       .  S
O1399      C1401   1.269       .  A
O1399     Mn1404   2.067       .  S
C1400      C1942   1.506       .  S
C1400      O1418   1.271   1_655  A
C1401      C2030   1.428       .  S
C1401      O1414   1.260       .  A
Mn1402     O1418   2.221       .  S
O1403     Mn1406   1.920   1_655  S
Mn1404     O1422   1.908       .  S
C1405      C2359   1.457       .  S
Mn1406     O1413   2.086       .  S
Mn1406     O1421   2.069       .  S
Mn1406     O1411   1.910       .  S
C1407      C1982   1.471       .  S
C1407      O1413   1.269       .  A
C1407      O1423   1.274       .  A
O1408     Mn1420   1.920   1_545  S
O1408      C1410   1.195       .  S
C1410      C2351   1.475       .  S
O1412     Mn1415   2.029       .  S
Mn1415     O1422   1.899       .  S
C1417      C1974   1.488   1_655  S
O1419      C1424   1.268   1_565  A
Mn1420     O1423   2.098       .  S
O1422      C1424   1.191       .  S
C1424      C2022   1.497       .  S
O1425      C1452   1.272       .  A
O1425     Mn1451   2.084       .  S
C1426      C2486   1.445       .  S
C1426      O1459   1.265       .  A
C1426      O1456   1.263   1_565  A
O1427     Mn1434   2.180   1_554  S
O1427     Mn1445   2.089       .  S
O1427     Mn1449   2.197   1_565  S
O1427     Mn1451   2.074       .  S
O1428      C1438   1.273   1_565  A
O1428     Mn1462   2.110       .  S
O1429      C1452   1.260       .  A
O1429     Mn1445   2.056       .  S
O1430      C1457   1.267       .  A
O1430     Mn1449   2.199       .  S
O1431     Mn1462   1.909   1_554  S
O1431     Mn1451   1.915       .  S
O1431      C1447   1.196       .  S
C1432      C1886   1.495       .  S
C1432      O1435   1.269   1_556  A
C1432      O1458   1.195       .  S
O1433     Mn1453   2.063   1_554  S
O1433     Mn1434   2.147   1_544  S
O1433     Mn1467   2.072       .  S
O1433     Mn1449   2.172       .  S
Mn1434     O1463   2.187       .  S
Mn1434     O1439   2.204       .  S
Mn1434     O1466   2.106       .  S
Mn1434     O1440   2.204       .  S
O1435     Mn1449   2.204       .  S
O1436      C1438   1.270       .  A
O1436     Mn1443   2.074       .  S
C1437      C1998   1.483       .  S
C1437      O1463   1.262   1_545  A
C1437      O1450   1.191       .  S
C1438      C1877   1.466       .  S
O1439      C1464   1.267   1_556  A
O1440     Mn1443   2.072   1_565  S
O1440     Mn1462   2.091       .  S
O1440     Mn1449   2.196   1_566  S
O1441     Mn1445   1.910       .  S
O1441     Mn1467   1.910   1_565  S
O1441      C1464   1.187       .  S
C1442      C2383   1.439       .  S
C1442      O1468   1.263   1_554  A
C1442      O1444   1.267       .  A
Mn1443     O1456   2.051       .  S
Mn1443     O1458   1.918       .  S
Mn1443     O1450   1.896       .  S
O1444     Mn1467   2.063       .  S
Mn1445     O1461   2.087       .  S
Mn1445     O1455   1.911   1_565  S
O1446      C1448   1.262       .  A
O1446     Mn1451   2.038       .  S
C1447      C1761   1.480       .  S
C1447      O1465   1.262   1_565  A
C1448      C2069   1.450       .  S
C1448      O1461   1.273       .  A
Mn1449     O1465   2.178       .  S
O1450     Mn1453   1.920       .  S
Mn1451     O1469   1.940   1_554  S
C1452      C1770   1.443       .  S
Mn1453     O1460   2.060       .  S
Mn1453     O1468   2.041       .  S
Mn1453     O1458   1.911       .  S
C1454      C1990   1.444       .  S
C1454      O1460   1.267       .  A
C1454      O1470   1.268   1_556  A
O1455     Mn1467   1.922       .  S
O1455      C1457   1.190       .  S
C1457      C2394   1.488       .  S
O1459     Mn1462   2.067       .  S
Mn1462     O1469   1.948       .  S
C1464      C2080   1.489       .  S
O1466      C1471   1.253       .  A
Mn1467     O1470   2.071       .  S
O1469      C1471   1.213       .  S
C1471      C2478   1.463       .  S
O1472      C1499   1.270       .  A
O1472     Mn1498   2.083       .  S
C1473      C2454   1.434       .  S
C1473      O1506   1.265       .  A
C1473      O1503   1.262       .  A
O1474     Mn1481   2.206   1_455  S
O1474     Mn1492   2.081       .  S
O1474     Mn1496   2.212   1_556  S
O1474     Mn1498   2.092       .  S
O1475      C1485   1.273   1_556  A
O1475     Mn1509   2.114       .  S
O1476      C1499   1.267       .  A
O1476     Mn1492   2.071       .  S
O1477      C1504   1.274       .  A
O1477     Mn1496   2.235       .  S
O1478     Mn1509   1.909   1_455  S
O1478     Mn1498   1.918       .  S
O1478      C1494   1.191       .  S
C1479      C1738   1.510       .  S
C1479      O1482   1.277   1_655  A
C1479      O1505   1.189       .  S
O1480     Mn1500   2.065       .  S
O1480     Mn1481   2.160   1_554  S
O1480     Mn1514   2.078   1_655  S
O1480     Mn1496   2.179   1_655  S
Mn1481     O1510   2.240       .  S
Mn1481     O1486   2.244       .  S
Mn1481     O1513   2.162       .  S
Mn1481     O1487   2.217       .  S
O1482     Mn1496   2.240       .  S
O1483      C1485   1.271       .  A
O1483     Mn1490   2.075       .  S
C1484      C2018   1.505       .  S
C1484      O1510   1.273   1_554  A
C1484      O1497   1.182       .  S
C1485      C1730   1.469       .  S
O1486      C1511   1.277   1_655  A
O1487     Mn1490   2.082   1_556  S
O1487     Mn1509   2.081       .  S
O1487     Mn1496   2.202   1_656  S
O1488     Mn1492   1.921       .  S
O1488     Mn1514   1.906   1_556  S
O1488      C1511   1.184       .  S
C1489      C2368   1.444       .  S
C1489      O1515   1.261   1_455  A
C1489      O1491   1.269       .  A
Mn1490     O1503   2.062   1_554  S
Mn1490     O1505   1.918       .  S
Mn1490     O1497   1.891       .  S
O1491     Mn1514   2.076       .  S
Mn1492     O1508   2.088       .  S
Mn1492     O1502   1.908       .  S
O1493      C1495   1.266       .  A
O1493     Mn1498   2.071       .  S
C1494      C1822   1.487       .  S
C1494      O1512   1.269   1_556  A
C1495      C2038   1.461       .  S
C1495      O1508   1.274       .  A
Mn1496     O1512   2.201       .  S
O1497     Mn1500   1.904       .  S
Mn1498     O1516   1.915   1_455  S
C1499      C1814   1.457       .  S
Mn1500     O1507   2.060       .  S
Mn1500     O1515   2.030       .  S
Mn1500     O1505   1.905       .  S
C1501      C2010   1.446       .  S
C1501      O1507   1.267       .  A
C1501      O1517   1.269       .  A
O1502     Mn1514   1.918   1_556  S
O1502      C1504   1.182   1_556  S
C1504      C2376   1.501       .  S
O1506     Mn1509   2.060       .  S
Mn1509     O1516   1.935       .  S
C1511      C2046   1.512       .  S
O1513      C1518   1.264       .  A
Mn1514     O1517   2.077   1_455  S
O1516      C1518   1.199       .  S
C1518      C2446   1.474       .  S
O1519      C1546   1.269       .  A
O1519     Mn1545   2.075       .  S
C1520      C2238   1.430       .  S
C1520      O1553   1.266       .  A
C1520      O1550   1.263       .  A
O1521     Mn1528   2.208       .  S
O1521     Mn1539   2.081       .  S
O1521     Mn1543   2.203       .  S
O1521     Mn1545   2.074       .  S
O1522      C1532   1.266       .  A
O1522     Mn1556   2.065       .  S
O1523      C1546   1.264       .  A
O1523     Mn1539   2.060       .  S
O1524      C1551   1.265       .  A
O1524     Mn1543   2.178       .  S
O1525     Mn1556   1.908       .  S
O1525     Mn1545   1.927       .  S
O1525      C1541   1.193       .  S
C1526      C2348   1.495       .  S
C1526      O1529   1.268       .  A
C1526      O1552   1.189       .  S
O1527     Mn1547   2.086       .  S
O1527     Mn1528   2.196       .  S
O1527     Mn1561   2.077       .  S
O1527     Mn1543   2.169       .  S
Mn1528     O1557   2.221       .  S
Mn1528     O1533   2.212       .  S
Mn1528     O1560   2.204       .  S
Mn1528     O1534   2.197       .  S
O1529     Mn1543   2.203       .  S
O1530      C1532   1.268       .  A
O1530     Mn1537   2.067       .  S
C1531      C2210   1.497       .  S
C1531      O1557   1.270       .  A
C1531      O1544   1.187       .  S
C1532      C2355   1.446       .  S
O1533      C1558   1.267       .  A
O1534     Mn1537   2.079       .  S
O1534     Mn1556   2.081       .  S
O1534     Mn1543   2.186       .  S
O1535     Mn1539   1.896       .  S
O1535     Mn1561   1.896       .  S
O1535      C1558   1.191       .  S
C1536      C2180   1.439       .  S
C1536      O1562   1.265       .  A
C1536      O1538   1.269       .  A
Mn1537     O1550   2.059       .  S
Mn1537     O1552   1.922       .  S
Mn1537     O1544   1.895       .  S
O1538     Mn1561   2.066       .  S
Mn1539     O1555   2.079       .  S
Mn1539     O1549   1.924       .  S
O1540      C1542   1.268       .  A
O1540     Mn1545   2.077       .  S
C1541      C2188   1.472       .  S
C1541      O1559   1.260       .  A
C1542      C2250   1.458       .  S
C1542      O1555   1.268       .  A
Mn1543     O1559   2.167       .  S
O1544     Mn1547   1.900       .  S
Mn1545     O1563   1.900       .  S
C1546      C2196   1.450       .  S
Mn1547     O1554   2.032       .  S
Mn1547     O1562   2.055       .  S
Mn1547     O1552   1.903       .  S
C1548      C2200   1.419       .  S
C1548      O1554   1.262       .  A
C1548      O1564   1.261       .  A
O1549     Mn1561   1.932       .  S
O1549      C1551   1.197       .  S
C1551      C2172   1.485       .  S
O1553     Mn1556   2.057       .  S
Mn1556     O1563   1.912       .  S
C1558      C2257   1.497       .  S
O1560      C1565   1.268       .  A
Mn1561     O1564   2.050       .  S
O1563      C1565   1.192       .  S
C1565      C2246   1.490       .  S
O1566      C1593   1.264       .  A
O1566     Mn1592   2.051       .  S
C1567      C2390   1.446       .  S
C1567      O1600   1.271       .  A
C1567      O1597   1.264       .  A
O1568     Mn1575   2.173       .  S
O1568     Mn1586   2.091       .  S
O1568     Mn1590   2.187       .  S
O1568     Mn1592   2.085       .  S
O1569      C1579   1.261       .  A
O1569     Mn1603   2.053       .  S
O1570      C1593   1.258       .  A
O1570     Mn1586   2.035       .  S
O1571      C1598   1.282       .  A
O1571     Mn1590   2.262       .  S
O1572     Mn1603   1.894       .  S
O1572     Mn1592   1.904       .  S
O1572      C1588   1.183       .  S
C1573      C2204   1.513       .  S
C1573      O1576   1.279       .  A
C1573      O1599   1.186       .  S
O1574     Mn1594   2.092       .  S
O1574     Mn1575   2.222       .  S
O1574     Mn1608   2.086       .  S
O1574     Mn1590   2.223       .  S
Mn1575     O1604   2.228       .  S
Mn1575     O1580   2.256       .  S
Mn1575     O1607   2.277       .  S
Mn1575     O1581   2.199       .  S
O1576     Mn1590   2.251       .  S
O1577      C1579   1.266       .  A
O1577     Mn1584   2.058       .  S
C1578      C2148   1.505       .  S
C1578      O1604   1.277       .  A
C1578      O1591   1.189       .  S
C1579      C2214   1.427       .  S
O1580      C1605   1.281       .  A
O1581     Mn1584   2.087       .  S
O1581     Mn1603   2.097       .  S
O1581     Mn1590   2.208       .  S
O1582     Mn1586   1.919       .  S
O1582     Mn1608   1.903       .  S
O1582      C1605   1.186       .  S
C1583      C2321   1.441       .  S
C1583      O1609   1.263       .  A
C1583      O1585   1.268       .  A
Mn1584     O1597   2.057       .  S
Mn1584     O1599   1.902       .  S
Mn1584     O1591   1.914       .  S
O1585     Mn1608   2.070       .  S
Mn1586     O1602   2.069       .  S
Mn1586     O1596   1.896       .  S
O1587      C1589   1.264       .  A
O1587     Mn1592   2.050       .  S
C1588      C2218   1.536       .  S
C1588      O1606   1.286       .  A
C1589      C2116   1.442       .  S
C1589      O1602   1.269       .  A
Mn1590     O1606   2.283       .  S
O1591     Mn1594   1.924       .  S
Mn1592     O1610   1.909       .  S
C1593      C2226   1.411       .  S
Mn1594     O1601   2.084       .  S
Mn1594     O1609   2.069       .  S
Mn1594     O1599   1.892       .  S
C1595      C2140   1.454       .  S
C1595      O1601   1.271       .  A
C1595      O1611   1.261       .  A
O1596     Mn1608   1.897       .  S
O1596      C1598   1.186       .  S
C1598      C2314   1.525       .  S
O1600     Mn1603   2.073       .  S
Mn1603     O1610   1.923       .  S
C1605      C2108   1.517       .  S
O1607      C1612   1.287       .  A
Mn1608     O1611   2.047       .  S
O1610      C1612   1.185       .  S
C1612      C2380   1.536       .  S
O1613      C1640   1.260       .  A
O1613     Mn1639   2.029       .  S
C1614      C2372   1.410       .  S
C1614      O1647   1.262       .  A
C1614      O1644   1.256       .  A
O1615     Mn1622   2.190       .  S
O1615     Mn1633   2.059       .  S
O1615     Mn1637   2.191       .  S
O1615     Mn1639   2.094       .  S
O1616      C1626   1.264       .  A
O1616     Mn1650   2.055       .  S
O1617      C1640   1.264       .  A
O1617     Mn1633   2.059       .  S
O1618      C1645   1.260       .  A
O1618     Mn1637   2.196       .  S
O1619     Mn1650   1.898       .  S
O1619     Mn1639   1.905       .  S
O1619      C1635   1.192       .  S
C1620      C2230   1.479       .  S
C1620      O1623   1.262       .  A
C1620      O1646   1.190       .  S
O1621     Mn1641   2.069       .  S
O1621     Mn1622   2.195       .  S
O1621     Mn1655   2.088       .  S
O1621     Mn1637   2.209       .  S
Mn1622     O1651   2.193       .  S
Mn1622     O1627   2.120       .  S
Mn1622     O1654   2.193       .  S
Mn1622     O1628   2.153       .  S
O1623     Mn1637   2.188       .  S
O1624      C1626   1.261       .  A
O1624     Mn1631   2.023       .  S
C1625      C2132   1.491       .  S
C1625      O1651   1.264       .  A
C1625      O1638   1.191       .  S
C1626      C2222   1.428       .  S
O1627      C1652   1.255       .  A
O1628     Mn1631   2.089       .  S
O1628     Mn1650   2.065       .  S
O1628     Mn1637   2.180       .  S
O1629     Mn1633   1.928       .  S
O1629     Mn1655   1.909       .  S
O1629      C1652   1.211       .  S
C1630      C2286   1.443       .  S
C1630      O1656   1.261       .  A
C1630      O1632   1.265       .  A
Mn1631     O1644   2.031       .  S
Mn1631     O1646   1.889       .  S
Mn1631     O1638   1.893       .  S
O1632     Mn1655   2.060       .  S
Mn1633     O1649   1.988       .  S
Mn1633     O1643   1.884       .  S
O1634      C1636   1.262       .  A
O1634     Mn1639   2.072       .  S
C1635      C2233   1.491       .  S
C1635      O1653   1.268       .  A
C1636      C2155   1.437       .  S
C1636      O1649   1.255       .  A
Mn1637     O1653   2.201       .  S
O1638     Mn1641   1.909       .  S
Mn1639     O1657   1.884       .  S
C1640      C2242   1.433       .  S
Mn1641     O1648   2.062       .  S
Mn1641     O1656   2.056       .  S
Mn1641     O1646   1.896       .  S
C1642      C2124   1.412       .  S
C1642      O1648   1.269       .  A
C1642      O1658   1.251       .  A
O1643     Mn1655   1.882       .  S
O1643      C1645   1.192       .  S
C1645      C2294   1.490       .  S
O1647     Mn1650   2.007       .  S
Mn1650     O1657   1.912       .  S
C1652      C2164   1.468       .  S
O1654      C1659   1.261       .  A
Mn1655     O1658   2.010       .  S
O1657      C1659   1.191       .  S
C1659      C2364   1.492       .  S
O1660      C1687   1.266       .  A
O1660     Mn1686   2.057       .  S
C1661      C2338   1.449       .  S
C1661      O1694   1.264       .  A
C1661      O1691   1.263       .  A
O1662     Mn1669   2.171       .  S
O1662     Mn1680   2.080       .  S
O1662     Mn1684   2.181       .  S
O1662     Mn1686   2.092       .  S
O1663      C1673   1.267       .  A
O1663     Mn1697   2.068       .  S
O1664      C1687   1.263       .  A
O1664     Mn1680   2.062       .  S
O1665      C1692   1.255       .  A
O1665     Mn1684   2.180       .  S
O1666     Mn1697   1.913       .  S
O1666     Mn1686   1.922       .  S
O1666      C1682   1.211       .  S
C1667      C2282   1.476       .  S
C1667      O1670   1.258       .  A
C1667      O1693   1.206       .  S
O1668     Mn1688   2.057       .  S
O1668     Mn1669   2.138       .  S
O1668     Mn1702   2.082       .  S
O1668     Mn1684   2.162       .  S
Mn1669     O1698   2.151       .  S
Mn1669     O1674   2.143       .  S
Mn1669     O1701   2.086       .  S
Mn1669     O1675   2.181       .  S
O1670     Mn1684   2.147       .  S
O1671      C1673   1.264       .  A
O1671     Mn1678   2.059       .  S
C1672      C2274   1.477       .  S
C1672      O1698   1.254       .  A
C1672      O1685   1.201       .  S
C1673      C2290   1.450       .  S
O1674      C1699   1.257       .  A
O1675     Mn1678   2.089       .  S
O1675     Mn1697   2.084       .  S
O1675     Mn1684   2.185       .  S
O1676     Mn1680   1.936       .  S
O1676     Mn1702   1.923       .  S
O1676      C1699   1.200       .  S
C1677      C2318   1.444       .  S
C1677      O1703   1.260       .  A
C1677      O1679   1.266       .  A
Mn1678     O1691   2.060       .  S
Mn1678     O1693   1.924       .  S
Mn1678     O1685   1.903       .  S
O1679     Mn1702   2.074       .  S
Mn1680     O1696   2.067       .  S
Mn1680     O1690   1.894       .  S
O1681      C1683   1.262       .  A
O1681     Mn1686   2.035       .  S
C1682      C2254   1.466       .  S
C1682      O1700   1.255       .  A
C1683      C2302   1.437       .  S
C1683      O1696   1.268       .  A
Mn1684     O1700   2.125       .  S
O1685     Mn1688   1.918       .  S
Mn1686     O1704   1.941       .  S
C1687      C2262   1.436       .  S
Mn1688     O1695   2.039       .  S
Mn1688     O1703   2.026       .  S
Mn1688     O1693   1.921       .  S
C1689      C2266   1.409       .  S
C1689      O1695   1.265       .  A
C1689      O1705   1.260       .  A
O1690     Mn1702   1.889       .  S
O1690      C1692   1.189       .  S
C1692      C2326   1.474       .  S
O1694     Mn1697   2.064       .  S
Mn1697     O1704   1.945       .  S
C1699      C2310   1.470       .  S
O1701      C1706   1.246       .  A
Mn1702     O1705   2.039       .  S
O1704      C1706   1.216       .  S
C1706      C2330   1.463       .  S
C1707      C1708   1.445       .  A
C1707      C1712   1.454       .  A
C1707      C2078   1.526       .  S
C1708      C1709   1.454   1_565  A
C1708      C2387   1.487   1_565  S
C1709      C1710   1.434   1_545  A
C1709      C2207   1.490       .  S
C1710      C1711   1.451       .  A
C1710      C2345   1.524   1_565  S
C1711      C1712   1.469       .  A
C1711      C1972   1.492       .  S
C1712      C1961   1.506       .  S
C1713      C1714   1.349       .  D
C1713      H1715   1.087       .  S
C1714      H1716   1.087       .  S
C1717      C1718   1.391       .  D
C1717      H1719   1.082       .  S
C1718      H1720   1.086       .  S
C1721      C1722   1.394       .  D
C1721      H1723   1.084       .  S
C1722      H1724   1.083       .  S
C1725      C1726   1.352       .  D
C1725      H1727   1.087       .  S
C1726      H1728   1.087       .  S
C1729      C1730   1.358       .  D
C1729      H1731   1.086   1_554  S
C1730      H1732   1.086       .  S
C1733      C1734   1.376       .  D
C1733      H1735   1.086       .  S
C1734      H1736   1.081       .  S
C1737      C1738   1.395       .  D
C1737      H1739   1.086       .  S
C1738      H1740   1.084       .  S
C1741      C1742   1.337       .  D
C1741      H1743   1.086       .  S
C1742      H1744   1.089       .  S
C1745      C1746   1.344       .  D
C1745      H1747   1.084       .  S
C1746      H1748   1.087       .  S
C1749      C1750   1.348       .  D
C1749      H1751   1.087       .  S
C1750      H1752   1.088       .  S
C1753      C1754   1.368       .  D
C1753      H1755   1.087       .  S
C1754      H1756   1.081       .  S
C1757      C1758   1.383       .  D
C1757      H1759   1.086       .  S
C1758      H1760   1.081       .  S
C1761      C1762   1.375       .  D
C1761      H1763   1.081       .  S
C1762      H1764   1.087       .  S
C1765      C1766   1.357       .  D
C1765      H1767   1.087       .  S
C1766      H1768   1.080   1_565  S
C1769      C1770   1.351       .  D
C1769      H1771   1.088       .  S
C1770      H1772   1.084       .  S
C1773      C1774   1.344       .  D
C1773      H1775   1.086       .  S
C1774      H1776   1.087       .  S
C1777      C1778   1.361       .  D
C1777      H1779   1.086       .  S
C1778      H1780   1.084       .  S
C1781      C1782   1.343       .  D
C1781      H1783   1.086       .  S
C1782      H1784   1.087       .  S
C1785      C1786   1.385       .  D
C1785      H1787   1.086       .  S
C1786      H1788   1.082       .  S
C1789      C1790   1.370       .  D
C1789      H1791   1.081       .  S
C1790      H1792   1.087       .  S
C1793      C1794   1.341       .  D
C1793      H1795   1.086       .  S
C1794      H1796   1.088       .  S
C1797      C1798   1.361       .  D
C1797      H1799   1.087       .  S
C1798      H1800   1.082       .  S
C1801      C1802   1.383       .  D
C1801      H1803   1.086       .  S
C1802      H1804   1.082       .  S
C1805      C1806   1.342       .  D
C1805      H1807   1.088       .  S
C1806      H1808   1.087       .  S
C1809      C1810   1.348       .  D
C1809      H1811   1.087       .  S
C1810      H1812   1.087       .  S
C1813      C1814   1.354       .  D
C1813      H1815   1.087       .  S
C1814      H1816   1.086       .  S
C1817      C1818   1.384       .  D
C1817      H1819   1.086       .  S
C1818      H1820   1.082       .  S
C1821      C1822   1.387       .  D
C1821      H1823   1.086       .  S
C1822      H1824   1.083       .  S
C1825      C1826   1.376       .  D
C1825      H1827   1.086       .  S
C1826      H1828   1.082       .  S
C1829      C1830   1.395       .  D
C1829      H1831   1.085       .  S
C1830      H1832   1.082       .  S
C1833      C1834   1.347       .  D
C1833      H1835   1.087       .  S
C1834      H1836   1.087       .  S
C1837      C1838   1.352       .  D
C1837      H1839   1.086       .  S
C1838      H1840   1.087       .  S
C1841      C1842   1.354       .  D
C1841      H1843   1.086       .  S
C1842      H1844   1.087       .  S
C1845      C1846   1.383       .  D
C1845      H1847   1.086       .  S
C1846      H1848   1.080       .  S
C1849      C1850   1.382       .  D
C1849      H1851   1.085       .  S
C1850      H1852   1.087       .  S
C1853      C1854   1.336       .  D
C1853      H1855   1.088       .  S
C1854      H1856   1.089       .  S
C1857      C1858   1.378       .  D
C1857      H1859   1.087       .  S
C1858      H1860   1.084       .  S
C1861      C1862   1.383       .  D
C1861      H1863   1.086       .  S
C1862      H1864   1.082       .  S
C1865      C1866   1.364       .  D
C1865      H1867   1.084       .  S
C1866      H1868   1.086       .  S
C1869      C1870   1.349       .  D
C1869      H1871   1.087       .  S
C1870      H1872   1.085       .  S
C1873      C1874   1.354       .  D
C1873      H1875   1.087       .  S
C1874      H1876   1.083       .  S
C1877      C1878   1.354       .  D
C1877      H1879   1.086       .  S
C1878      H1880   1.087       .  S
C1881      C1882   1.331       .  D
C1881      H1883   1.088       .  S
C1882      H1884   1.088       .  S
C1885      C1886   1.382       .  D
C1885      H1887   1.087       .  S
C1886      H1888   1.083       .  S
C1889      C1890   1.370       .  D
C1889      H1891   1.087       .  S
C1890      H1892   1.083       .  S
C1893      C1894   1.399       .  D
C1893      H1895   1.085       .  S
C1894      H1896   1.082       .  S
C1897      C1898   1.351       .  D
C1897      H1899   1.087       .  S
C1898      H1900   1.086       .  S
C1901      C1902   1.357       .  D
C1901      H1903   1.086       .  S
C1902      H1904   1.086       .  S
C1905      C1906   1.384       .  D
C1905      H1907   1.086       .  S
C1906      H1908   1.082       .  S
C1909      C1910   1.388       .  D
C1909      H1911   1.083       .  S
C1910      H1912   1.086       .  S
C1913      C1914   1.345       .  D
C1913      H1915   1.087       .  S
C1914      H1916   1.085       .  S
C1917      C1918   1.351       .  D
C1917      H1919   1.087       .  S
C1918      H1920   1.082       .  S
C1921      C1922   1.338       .  D
C1921      H1923   1.086       .  S
C1922      H1924   1.090       .  S
C1925      C1926   1.367       .  D
C1925      H1927   1.085       .  S
C1926      H1928   1.087       .  S
C1929      C1930   1.364       .  D
C1929      H1931   1.087   1_655  S
C1930      H1932   1.081       .  S
C1933      C1934   1.354       .  D
C1933      H1935   1.087       .  S
C1934      H1936   1.086       .  S
C1937      C1938   1.344       .  D
C1937      H1939   1.087       .  S
C1938      H1940   1.089       .  S
C1941      C1942   1.388       .  D
C1941      H1943   1.086       .  S
C1942      H1944   1.083       .  S
C1945      C1946   1.361       .  D
C1945      H1947   1.087       .  S
C1946      H1948   1.083       .  S
C1949      C1950   1.340       .  D
C1949      H1951   1.087   1_545  S
C1950      H1952   1.089       .  S
C1953      C1954   1.344   1_655  D
C1953      H1955   1.087       .  S
C1954      H1956   1.087       .  S
C1957      C1958   1.342       .  D
C1957      H1959   1.087       .  S
C1958      H1960   1.088   1_554  S
C1961      C1962   1.243       .  T
C1963      C1964   1.374       .  D
C1963      H1965   1.086       .  S
C1964      H1966   1.081       .  S
C1967      C1968   1.379       .  D
C1967      H1969   1.086       .  S
C1968      H1970   1.081       .  S
C1971      C1972   1.236       .  T
C1973      C1974   1.379       .  D
C1973      H1975   1.086       .  S
C1974      H1976   1.082   1_455  S
C1977      C1978   1.368       .  D
C1977      H1979   1.087       .  S
C1978      H1980   1.081   1_455  S
C1981      C1982   1.356       .  D
C1981      H1983   1.086       .  S
C1982      H1984   1.086       .  S
C1985      C1986   1.342       .  D
C1985      H1987   1.087       .  S
C1986      H1988   1.088       .  S
C1989      C1990   1.342       .  D
C1989      H1991   1.088       .  S
C1990      H1992   1.087       .  S
C1993      C1994   1.385       .  D
C1993      H1995   1.086       .  S
C1994      H1996   1.082       .  S
C1997      C1998   1.379       .  D
C1997      H1999   1.087       .  S
C1998      H2000   1.084   1_545  S
C2001      C2002   1.342       .  D
C2001      H2003   1.089       .  S
C2002      H2004   1.087       .  S
C2005      C2006   1.361       .  D
C2005      H2007   1.087       .  S
C2006      H2008   1.084       .  S
C2009      C2010   1.341       .  D
C2009      H2011   1.087       .  S
C2010      H2012   1.087       .  S
C2013      C2014   1.335       .  D
C2013      H2015   1.088       .  S
C2014      H2016   1.088       .  S
C2017      C2018   1.400       .  D
C2017      H2019   1.086       .  S
C2018      H2020   1.082       .  S
C2021      C2022   1.387       .  D
C2021      H2023   1.085       .  S
C2022      H2024   1.081       .  S
C2025      C2026   1.346       .  D
C2025      H2027   1.087       .  S
C2026      H2028   1.087       .  S
C2029      C2030   1.344       .  D
C2029      H2031   1.086       .  S
C2030      H2032   1.085       .  S
C2033      C2034   1.375       .  D
C2033      H2035   1.087       .  S
C2034      H2036   1.083       .  S
C2037      C2038   1.360       .  D
C2037      H2039   1.087       .  S
C2038      H2040   1.085       .  S
C2041      C2042   1.352       .  D
C2041      H2043   1.087       .  S
C2042      H2044   1.086       .  S
C2045      C2046   1.405       .  D
C2045      H2047   1.084       .  S
C2046      H2048   1.082       .  S
C2049      C2050   1.360       .  D
C2049      H2051   1.087       .  S
C2050      H2052   1.083       .  S
C2053      C2054   1.348       .  D
C2053      H2055   1.087   1_545  S
C2054      H2056   1.087       .  S
C2057      C2058   1.348       .  D
C2057      H2059   1.087   1_554  S
C2058      H2060   1.087       .  S
C2061      C2062   1.370       .  D
C2061      H2063   1.087       .  S
C2062      H2064   1.081       .  S
C2065      C2066   1.377       .  D
C2065      H2067   1.087       .  S
C2066      H2068   1.081       .  S
C2069      C2070   1.354       .  D
C2069      H2071   1.086       .  S
C2070      H2072   1.087       .  S
C2073      C2074   1.358       .  D
C2073      H2075   1.087       .  S
C2074      H2076   1.086       .  S
C2077      C2078   1.253       .  T
C2079      C2080   1.390       .  D
C2079      H2081   1.086       .  S
C2080      H2082   1.082       .  S
C2083      C2084   1.382       .  D
C2083      H2085   1.086       .  S
C2084      H2086   1.083       .  S
C2087      C2088   1.345       .  D
C2087      H2089   1.087   1_545  S
C2088      H2090   1.087       .  S
C2091      C2092   1.347       .  D
C2091      H2093   1.087   1_455  S
C2092      H2094   1.087       .  S
C2095      C2096   1.398       .  D
C2095      H2097   1.085       .  S
C2096      H2098   1.081       .  S
C2099      C2100   1.362       .  D
C2099      H2101   1.081       .  S
C2100      H2102   1.087       .  S
C2103      C2104   1.342       .  D
C2103      H2105   1.089       .  S
C2104      H2106   1.087       .  S
C2107      C2108   1.402       .  D
C2107      H2109   1.086       .  S
C2108      H2110   1.085       .  S
C2111      C2112   1.382       .  D
C2111      H2113   1.086   1_554  S
C2112      H2114   1.082       .  S
C2115      C2116   1.348       .  D
C2115      H2117   1.087       .  S
C2116      H2118   1.087       .  S
C2119      C2120   1.349       .  D
C2119      H2121   1.087       .  S
C2120      H2122   1.082       .  S
C2123      C2124   1.332       .  D
C2123      H2125   1.091       .  S
C2124      H2126   1.084       .  S
C2127      C2128   1.376       .  D
C2127      H2129   1.083       .  S
C2128      H2130   1.086       .  S
C2131      C2132   1.386       .  D
C2131      H2133   1.085       .  S
C2132      H2134   1.082       .  S
C2135      C2136   1.351       .  D
C2135      H2137   1.087       .  S
C2136      H2138   1.085       .  S
C2139      C2140   1.357       .  D
C2139      H2141   1.086       .  S
C2140      H2142   1.085       .  S
C2143      C2144   1.366       .  D
C2143      H2145   1.087       .  S
C2144      H2146   1.083       .  S
C2147      C2148   1.400       .  D
C2147      H2149   1.085       .  S
C2148      H2150   1.082       .  S
C2151      C2152   1.392       .  D
C2151      H2153   1.082       .  S
C2152      H2154   1.086   1_455  S
C2155      C2156   1.338       .  D
C2155      H2157   1.088       .  S
C2156      H2158   1.087       .  S
C2159      C2160   1.344       .  D
C2159      H2161   1.087       .  S
C2160      H2162   1.088       .  S
C2163      C2164   1.357       .  D
C2163      H2165   1.087       .  S
C2164      H2166   1.082       .  S
C2167      C2168   1.354       .  D
C2167      H2169   1.086       .  S
C2168      H2170   1.088       .  S
C2171      C2172   1.376       .  D
C2171      H2173   1.086       .  S
C2172      H2174   1.083       .  S
C2175      C2176   1.395       .  D
C2175      H2177   1.082       .  S
C2176      H2178   1.085   1_545  S
C2179      C2180   1.349       .  D
C2179      H2181   1.087       .  S
C2180      H2182   1.087       .  S
C2183      C2184   1.370       .  D
C2183      H2185   1.087       .  S
C2184      H2186   1.082       .  S
C2187      C2188   1.376       .  D
C2187      H2189   1.087       .  S
C2188      H2190   1.083       .  S
C2191      C2192   1.352       .  D
C2191      H2193   1.086       .  S
C2192      H2194   1.087       .  S
C2195      C2196   1.353       .  D
C2195      H2197   1.087       .  S
C2196      H2198   1.086       .  S
C2199      C2200   1.332       .  D
C2199      H2201   1.088       .  S
C2200      H2202   1.088       .  S
C2203      C2204   1.401       .  D
C2203      H2205   1.085       .  S
C2204      H2206   1.083       .  S
C2207      C2208   1.232       .  T
C2209      C2210   1.392       .  D
C2209      H2211   1.085       .  S
C2210      H2212   1.082       .  S
C2213      C2214   1.340       .  D
C2213      H2215   1.087       .  S
C2214      H2216   1.085       .  S
C2217      C2218   1.413       .  D
C2217      H2219   1.085       .  S
C2218      H2220   1.084       .  S
C2221      C2222   1.337       .  D
C2221      H2223   1.087       .  S
C2222      H2224   1.089       .  S
C2225      C2226   1.332       .  D
C2225      H2227   1.090       .  S
C2226      H2228   1.085       .  S
C2229      C2230   1.380       .  D
C2229      H2231   1.086       .  S
C2230      H2232   1.082       .  S
C2233      C2234   1.384       .  D
C2233      H2235   1.083       .  S
C2234      H2236   1.086       .  S
C2237      C2238   1.341       .  D
C2237      H2239   1.088       .  S
C2238      H2240   1.084       .  S
C2241      C2242   1.341       .  D
C2241      H2243   1.087       .  S
C2242      H2244   1.089       .  S
C2245      C2246   1.382       .  D
C2245      H2247   1.087       .  S
C2246      H2248   1.085       .  S
C2249      C2250   1.346       .  D
C2249      H2251   1.087       .  S
C2250      H2252   1.087       .  S
C2253      C2254   1.355       .  D
C2253      H2255   1.088       .  S
C2254      H2256   1.083       .  S
C2257      C2258   1.383       .  D
C2257      H2259   1.083       .  S
C2258      H2260   1.087       .  S
C2261      C2262   1.334       .  D
C2261      H2263   1.088       .  S
C2262      H2264   1.087       .  S
C2265      C2266   1.326       .  D
C2265      H2267   1.092       .  S
C2266      H2268   1.086       .  S
C2269      C2270   1.397       .  D
C2269      H2271   1.085       .  S
C2270      H2272   1.081       .  S
C2273      C2274   1.364       .  D
C2273      H2275   1.087       .  S
C2274      H2276   1.083       .  S
C2277      C2278   1.342       .  D
C2277      H2279   1.087       .  S
C2278      H2280   1.089       .  S
C2281      C2282   1.363       .  D
C2281      H2283   1.087       .  S
C2282      H2284   1.082       .  S
C2285      C2286   1.334       .  D
C2285      H2287   1.088       .  S
C2286      H2288   1.087       .  S
C2289      C2290   1.339       .  D
C2289      H2291   1.087       .  S
C2290      H2292   1.088       .  S
C2293      C2294   1.375       .  D
C2293      H2295   1.087       .  S
C2294      H2296   1.082       .  S
C2297      C2298   1.367       .  D
C2297      H2299   1.086       .  S
C2298      H2300   1.085       .  S
C2301      C2302   1.348       .  D
C2301      H2303   1.087       .  S
C2302      H2304   1.086       .  S
C2305      C2306   1.375       .  D
C2305      H2307   1.087       .  S
C2306      H2308   1.081       .  S
C2309      C2310   1.369       .  D
C2309      H2311   1.087       .  S
C2310      H2312   1.082       .  S
C2313      C2314   1.409       .  D
C2313      H2315   1.085       .  S
C2314      H2316   1.080       .  S
C2317      C2318   1.344       .  D
C2317      H2319   1.087       .  S
C2318      H2320   1.088       .  S
C2321      C2322   1.349       .  D
C2321      H2323   1.080       .  S
C2322      H2324   1.087       .  S
C2325      C2326   1.374       .  D
C2325      H2327   1.087       .  S
C2326      H2328   1.083       .  S
C2329      C2330   1.344       .  D
C2329      H2331   1.088       .  S
C2330      H2332   1.082       .  S
C2333      C2334   1.370       .  D
C2333      H2335   1.087       .  S
C2334      H2336   1.082       .  S
C2337      C2338   1.343       .  D
C2337      H2339   1.087       .  S
C2338      H2340   1.088       .  S
C2341      C2342   1.354       .  D
C2341      H2343   1.086       .  S
C2342      H2344   1.087       .  S
C2345      C2346   1.251       .  T
C2347      C2348   1.391       .  D
C2347      H2349   1.085       .  S
C2348      H2350   1.082       .  S
C2351      C2352   1.376       .  D
C2351      H2353   1.083       .  S
C2352      H2354   1.087       .  S
C2355      C2356   1.350       .  D
C2355      H2357   1.087       .  S
C2356      H2358   1.087       .  S
C2359      C2360   1.355       .  D
C2359      H2361   1.086       .  S
C2360      H2362   1.086   1_455  S
C2363      C2364   1.383       .  D
C2363      H2365   1.086       .  S
C2364      H2366   1.082       .  S
C2367      C2368   1.350       .  D
C2367      H2369   1.086   1_455  S
C2368      H2370   1.088       .  S
C2371      C2372   1.330       .  D
C2371      H2373   1.091       .  S
C2372      H2374   1.087       .  S
C2375      C2376   1.399       .  D
C2375      H2377   1.085   1_554  S
C2376      H2378   1.082       .  S
C2379      C2380   1.414       .  D
C2379      H2381   1.085       .  S
C2380      H2382   1.081       .  S
C2383      C2384   1.346       .  D
C2383      H2385   1.088       .  S
C2384      H2386   1.086   1_554  S
C2387      C2388   1.231       .  T
C2389      C2390   1.355       .  D
C2389      H2391   1.086       .  S
C2390      H2392   1.087       .  S
C2393      C2394   1.384       .  D
C2393      H2395   1.086   1_545  S
C2394      H2396   1.083       .  S
C2397      C2398   1.385       .  D
C2397      H2399   1.086       .  S
C2398      H2400   1.081       .  S
C2401      C2402   1.367       .  D
C2401      H2403   1.087       .  S
C2402      H2404   1.080       .  S
C2405      C2406   1.349       .  D
C2405      H2407   1.087   1_655  S
C2406      H2408   1.086       .  S
C2409      C2410   1.344       .  D
C2409      H2411   1.087   1_565  S
C2410      H2412   1.088       .  S
C2413      C2414   1.388       .  D
C2413      H2415   1.086       .  S
C2414      H2416   1.081       .  S
C2417      C2418   1.383       .  D
C2417      H2419   1.086       .  S
C2418      H2420   1.083       .  S
C2421      C2422   1.349       .  D
C2421      H2423   1.087   1_565  S
C2422      H2424   1.087       .  S
C2425      C2426   1.361       .  D
C2425      H2427   1.086       .  S
C2426      H2428   1.086       .  S
C2429      C2430   1.369       .  D
C2429      H2431   1.087       .  S
C2430      H2432   1.082       .  S
C2433      C2434   1.353       .  D
C2433      H2435   1.088       .  S
C2434      H2436   1.082       .  S
C2437      C2438   1.344       .  D
C2437      H2439   1.087       .  S
C2438      H2440   1.087   1_655  S
C2441      C2442   1.343       .  D
C2441      H2443   1.088   1_556  S
C2442      H2444   1.087       .  S
C2445      C2446   1.375       .  D
C2445      H2447   1.086       .  S
C2446      H2448   1.083       .  S
C2449      C2450   1.394       .  D
C2449      H2451   1.085       .  S
C2450      H2452   1.082       .  S
C2453      C2454   1.349       .  D
C2453      H2455   1.086       .  S
C2454      H2456   1.083       .  S
C2457      C2458   1.348       .  D
C2457      H2459   1.086       .  S
C2458      H2460   1.084       .  S
C2461      C2462   1.386       .  D
C2461      H2463   1.086       .  S
C2462      H2464   1.081       .  S
C2465      C2466   1.391       .  D
C2465      H2467   1.086       .  S
C2466      H2468   1.081       .  S
C2469      C2470   1.347       .  D
C2469      H2471   1.087   1_565  S
C2470      H2472   1.087       .  S
C2473      C2474   1.344       .  D
C2473      H2475   1.087   1_556  S
C2474      H2476   1.088       .  S
C2477      C2478   1.353       .  D
C2477      H2479   1.088       .  S
C2478      H2480   1.082       .  S
C2481      C2482   1.384       .  D
C2481      H2483   1.086       .  S
C2482      H2484   1.080       .  S
C2485      C2486   1.349       .  D
C2485      H2487   1.088   1_565  S
C2486      H2488   1.087       .  S
C2489      C2490   1.341       .  D
C2489      H2491   1.087       .  S
C2490      H2492   1.083       .  S
C2493      C2494   1.220       .  T
C2495      C2496   1.233       .  T
C2497      C2498   1.232       .  T
C2499      C2500   1.231       .  T
C2501      C2502   1.212       .  T
C2503      C2504   1.206       .  T
C2505      C2506   1.217       .  T
C2507      C2508   1.199       .  T
C2509      C2510   1.207       .  T
C2511      C2512   1.203       .  T
C2513      C2514   1.209       .  T
C2515      C2516   1.209       .  T
C2517      C2518   1.202       .  T
C2519      C2520   1.223       .  T
C2521      C2522   1.230       .  T
C2523      C2524   1.232       .  T
C2525      C2526   1.232       .  T
C2527      C2528   1.221       .  T
C2529      C2530   1.207       .  T
C2531      C2532   1.205       .  T
C2533      C2534   1.216       .  T
C2535      C2536   1.204       .  T
C2537      C2538   1.212       .  T
C2539      C2540   1.209       .  T
C2541      C2542   1.252       .  T
C2543      C2544   1.257       .  T
C2545      C2546   1.255       .  T
C2547      C2548   1.233       .  T
C2549      C2550   1.231       .  T
C2551      C2552   1.253       .  T
C2553      C2554   1.205       .  T
C2555      C2556   1.208       .  T
C2557      C2558   1.207       .  T
C2559      C2560   1.208       .  T
C2561      C2562   1.197       .  T
C2563      C2564   1.192       .  T
C2565      C2566   1.226       .  T
C2567      C2568   1.224       .  T
C2569      C2570   1.220       .  T
C2571      C2572   1.217       .  T
C2573      C2574   1.221       .  T
C2575      C2576   1.212       .  T
C2577      C2578   1.242       .  T
C2579      C2580   1.239       .  T
C2581      C2582   1.240       .  T
C2583      C2584   1.250       .  T
C2585      C2586   1.242       .  T
C2587      C2588   1.255       .  T
C2589      C2590   1.222       .  T
C2591      C2592   1.214       .  T
C2593      C2594   1.225       .  T
C2595      C2596   1.248       .  T
C2597      C2598   1.227       .  T
C2599      C2600   1.245       .  T
C2601      C2602   1.239       .  T
C2603      C2604   1.251       .  T
C2605      C2606   1.245       .  T
C2607      C2608   1.233       .  T
C2609      C2610   1.236       .  T
C2611      C2612   1.243       .  T
C2613      C2614   1.193       .  T
C2615      C2616   1.194       .  T
C2617      C2618   1.198       .  T
C2619      C2620   1.193       .  T
C2621      C2622   1.199       .  T
C2623      C2624   1.201       .  T
C2625      C2626   1.238       .  T
C2627      C2628   1.228       .  T
C2629      C2630   1.225       .  T
C2631      C2632   1.209       .  T
C2633      C2634   1.215       .  T
C2635      C2636   1.204       .  T
C2637      C2638   1.252       .  T
C2639      C2640   1.254       .  T
C2641      C2642   1.256       .  T
C2643      C2644   1.252       .  T
C2645      C2646   1.253       .  T
C2647      C2648   1.262       .  T
C2649      C2650   1.234       .  T
C2651      C2652   1.222       .  T
C2653      C2654   1.232       .  T
C2655      C2656   1.234       .  T
C2657      C2658   1.201       .  T
C2659      C2660   1.239       .  T
C2661      C2662   1.204       .  T
C2663      C2664   1.214       .  T
C2665      C2666   1.212       .  T
C2667      C2668   1.202       .  T
C2669      C2670   1.215       .  T
C2671      C2672   1.220       .  T
