geometry optimzed in LAMMPS
_audit_creation_date              2020-11-30 
_audit_creation_method            'lammps2cif' 
_symmetry_space_group_name_H-M    'P1' 
_symmetry_Int_Tables_number       1 
_symmetry_cell_setting            triclinic 
loop_ 
_symmetry_equiv_pos_as_xyz 
  x,y,z 
_cell_length_a                    47.39222084 
_cell_length_b                    25.266338770092563 
_cell_length_c                    37.396172352183925 
_cell_angle_alpha                 91.20433245952596 
_cell_angle_beta                  90.49899381915195 
_cell_angle_gamma                 89.5555499583429 
loop_ 
_atom_site_label 
_atom_site_type_symbol 
_atom_site_fract_x 
_atom_site_fract_y 
_atom_site_fract_z 
_atom_site_charge 
C1          C  0.36167342  0.74995457  0.00488357     0.80000
N2          N  0.35191521  0.73253059  0.47159380    -0.78300
C3          C  0.33555495  0.68883907  0.47008576     0.82400
N4          N  0.32678509  0.66785866  0.50100116    -0.79600
C5          C  0.33288662  0.68798260  0.03313919     0.82500
N6          N  0.35065571  0.72984907  0.03515668    -0.80000
C7          C  0.12315697  0.85573034  0.00190732     0.80000
N8          N  0.13568034  0.84110687  0.47189812    -0.78300
C9          C  0.15677189  0.80451006  0.47032779     0.82400
N10         N  0.16684443  0.78377107  0.50111004    -0.78300
C11         C  0.15389913  0.79814540  0.03271249     0.82500
N12         N  0.13270849  0.83478496  0.03298074    -0.80000
C13         C  0.30333113  0.26507160  0.99704354     0.80000
N14         N  0.28912641  0.28515561  0.46556742    -0.78300
C15         C  0.27072245  0.32642406  0.46735701     0.82400
N16         N  0.26285631  0.34600281  0.49973759    -0.78300
C17         C  0.27581832  0.32658378  0.03020368     0.82500
N18         N  0.29441984  0.28553599  0.02903134    -0.80000
N19         N  0.47419642  0.97944872  0.00009292    -0.36800
N20         N  0.00446487  0.07941484  0.99692827    -0.57400
N21         N  0.45259431  0.13640384  0.99372824    -0.36800
N22         N  0.42120817  0.03850367  0.99883164    -0.57400
C23         C  0.50037992  0.96122312  0.00773198     0.26700
C24         C  0.45589585  0.94073092  0.00786767     0.26700
C25         C  0.47088145  0.17550464  0.00242200     0.26700
C26         C  0.42645273  0.15462480  0.00170898     0.26700
C27         C  0.02605021  0.04472245  0.99294849     0.35400
C28         C  0.01503886  0.12765170  0.99058132     0.35400
C29         C  0.41101151  0.98904759  0.99481345     0.35400
C30         C  0.39961255  0.07175580  0.99150647     0.35400
C31         C  0.49875058  0.91000135  0.02016736    -0.22100
C32         C  0.47063527  0.89707927  0.02030189    -0.22100
C33         C  0.45620430  0.21917207  0.01578407    -0.22100
C34         C  0.42811891  0.20595807  0.01536326    -0.22100
C35         C  0.05057801  0.07104789  0.98453719    -0.23200
C36         C  0.04359763  0.12373435  0.98306913    -0.23200
C37         C  0.38268029  0.99084962  0.98524249    -0.23200
C38         C  0.37544584  0.04342739  0.98312380    -0.23200
C39         C  0.02420312  0.98994652  0.99863627    -0.18500
C40         C  0.42645570  0.94243180  0.00186764    -0.18500
C41         C  0.40101826  0.12722474  0.99519092    -0.18500
C42         C  0.99985598  0.17558493  0.99446748    -0.18500
H43         H  0.01383407  0.88628022  0.02473657     0.14400
H44         H  0.46206202  0.85953554  0.02818602     0.14400
H45         H  0.46483994  0.25664574  0.02494733     0.14400
H46         H  0.41086799  0.23128055  0.02407335     0.14400
H47         H  0.07136979  0.05415725  0.98030322     0.12700
H48         H  0.05798402  0.15558204  0.97762191     0.12700
H49         H  0.36861856  0.95777776  0.98071851     0.12700
H50         H  0.35470436  0.05901258  0.97677182     0.12700
H51         H  0.46924105  0.01493725  0.98809783     0.25900
H52         H  0.45750668  0.10060037  0.98102273     0.25900
C53         C  0.06801373  0.36404136  0.99467431     0.80000
N54         N  0.07675280  0.38448172  0.02672412    -0.78300
C55         C  0.09472655  0.42573221  0.02862721     0.82400
N56         N  0.10127376  0.45056191  0.49894059    -0.78300
C57         C  0.09217740  0.43121606  0.46682510     0.82500
N58         N  0.07425008  0.38936512  0.46597270    -0.80000
O59         O  0.28243756  0.63278460  0.31114537    -0.75500
O60         O  0.25192197  0.59788437  0.35104934    -0.54400
C61         C  0.27463021  0.62237910  0.34313783     0.78200
O62         O  0.17590031  0.69370021  0.18963303    -0.60100
O63         O  0.19363557  0.63299646  0.14961549    -0.53200
C64         C  0.18144810  0.67712097  0.15763316     0.70200
O65         O  0.17861421  0.69897951  0.31127712    -0.74700
O66         O  0.19604308  0.63997210  0.35137935    -0.55200
C67         C  0.18451681  0.68429607  0.34328518     0.76200
O68         O  0.28237855  0.62679543  0.18977224    -0.59800
O69         O  0.24957154  0.59553585  0.15023969    -0.52900
C70         C  0.27309879  0.61799837  0.15770204     0.72800
Zr71       Zr  0.26555980  0.61144672  0.25057238     2.54700
O72         O  0.28319250  0.70158287  0.24912215    -0.80400
O73         O  0.31304893  0.57402448  0.25174471    -0.93800
Zr74       Zr  0.18499039  0.66331237  0.25047256     2.64700
O75         O  0.20099338  0.75467250  0.24984862    -0.98800
O76         O  0.13577551  0.69178781  0.25007778    -0.80800
O77         O  0.22565333  0.63945637  0.28433831    -0.84200
O78         O  0.22542476  0.63815212  0.21703128    -2.18900
O79         O  0.24935407  0.42831731  0.18948536    -0.67600
O80         O  0.23176389  0.48854270  0.15057511    -0.52100
C81         C  0.24490353  0.44543080  0.15766889     0.71200
O82         O  0.14264842  0.49311586  0.30994634    -0.60500
O83         O  0.17334360  0.52973198  0.35056680    -0.52500
C84         C  0.15086089  0.50395355  0.34220003     0.73000
O85         O  0.14123218  0.49616909  0.18826371    -0.71900
O86         O  0.17388568  0.52551538  0.14917212    -0.50600
C87         C  0.15025327  0.50438446  0.15642141     0.74400
O88         O  0.24479596  0.42786682  0.31064318    -0.67200
O89         O  0.22938594  0.49097791  0.35044410    -0.54400
C90         C  0.24018262  0.44551959  0.34265902     0.72800
Zr91       Zr  0.23850747  0.46131719  0.25004339     2.77500
O92         O  0.22025766  0.37152846  0.24664159    -0.98000
O93         O  0.28758914  0.43239299  0.25268487    -0.78800
Zr94       Zr  0.15828098  0.51342422  0.24959516     2.70100
O95         O  0.14030267  0.42343697  0.24736511    -0.80000
O96         O  0.11072406  0.55043546  0.25137600    -0.99100
Zr97       Zr  0.21212225  0.56437519  0.31694414     2.21500
Zr98       Zr  0.21174549  0.56110080  0.18427999     2.11100
O99         O  0.19812336  0.48530900  0.21599396    -2.47800
O100        O  0.19836714  0.48763010  0.28376652    -0.79800
O101        O  0.25264186  0.53517335  0.21634348    -0.72000
O102        O  0.17103654  0.58964718  0.28432926    -2.33000
O103        O  0.25273267  0.53686798  0.28438658    -2.29200
O104        O  0.17081933  0.58809029  0.21589987    -0.73800
H105        H  0.23051125  0.66638523  0.20136744     0.78200
H106        H  0.15585863  0.59983499  0.30018309     0.79300
H107        H  0.19308247  0.45645239  0.19989275     0.81500
H108        H  0.26803893  0.52722614  0.30025633     0.79100
H109        H  0.13500940  0.72250502  0.26692542     0.42200
H110        H  0.11140404  0.58140313  0.23562282     0.41100
H111        H  0.15614336  0.40175662  0.23786254     0.40800
H112        H  0.23554427  0.34923959  0.25666088     0.38800
H113        H  0.28678631  0.39514356  0.26029510     0.41900
H114        H  0.32555253  0.60465601  0.24820861     0.36700
H115        H  0.26856619  0.72312350  0.26151140     0.42800
H116        H  0.21300652  0.75669171  0.22839717     0.39200
H117        H  0.20520880  0.37108844  0.26483346     0.44100
H118        H  0.31448578  0.55291523  0.22921315     0.42900
H119        H  0.18389371  0.77553093  0.24381838     0.43000
H120        H  0.09901167  0.52430940  0.23801770     0.43300
C121        C  0.11696037  0.49790414  0.06420610    -0.26600
C122        C  0.10547058  0.44682957  0.06347702    -0.14600
C123        C  0.10640083  0.41696681  0.09528093     0.36000
C124        C  0.11993591  0.43770891  0.12582560    -0.26000
C125        C  0.13290673  0.48731484  0.12549822    -0.15200
C126        C  0.13081508  0.51814545  0.09441176     0.37100
N127        N  0.14233898  0.57033878  0.09260142    -0.89500
H128        H  0.11589842  0.52218793  0.04068761     0.18200
H129        H  0.12140835  0.41379293  0.14951437     0.18200
N130        N  0.09482933  0.36496766  0.09736765    -0.88500
H131        H  0.16433347  0.56805863  0.09367367     0.35600
H132        H  0.13498833  0.59310029  0.11430818     0.40700
H133        H  0.10431853  0.34042562  0.07802624     0.40300
H134        H  0.07308486  0.36725500  0.09274610     0.35200
C135        C  0.10487669  0.42082354  0.40213559    -0.26600
C136        C  0.10395991  0.45282430  0.43336213    -0.14600
C137        C  0.11644949  0.50358779  0.43299375     0.36000
C138        C  0.13124770  0.51920422  0.40271602    -0.26000
C139        C  0.13330244  0.48625357  0.37221647    -0.15200
C140        C  0.11950411  0.43688042  0.37160645     0.37100
N141        N  0.12132137  0.40232145  0.34065999    -0.89500
H142        H  0.09527847  0.38207584  0.40201289     0.18200
H143        H  0.14127231  0.55763114  0.40290648     0.18200
N144        N  0.11417149  0.53926391  0.46332924    -0.88500
H145        H  0.10980260  0.36778704  0.34444290     0.35600
H146        H  0.14242863  0.39067038  0.33794128     0.40700
H147        H  0.09285359  0.54934678  0.46612313     0.40300
H148        H  0.12487703  0.57452096  0.45887294     0.35200
C149        C  0.02055629  0.24829440  0.46704303    -0.26600
C150        C  0.01617455  0.22516400  0.99556347    -0.14600
C151        C  0.52856747  0.24468598  0.02931490     0.36000
C152        C  0.04836460  0.28618321  0.02493919    -0.26000
C153        C  0.04973108  0.31666828  0.99394673    -0.15200
C154        C  0.03690799  0.29434293  0.46479226     0.37100
N155        N  0.04379453  0.31421490  0.43023760    -0.89500
H156        H  0.01334361  0.22825587  0.44277275     0.18200
H157        H  0.06059050  0.29695391  0.04850840     0.18200
N158        N  0.52596152  0.21958272  0.06330903    -0.88500
H159        H  0.03310954  0.29313434  0.40999989     0.35600
H160        H  0.06525464  0.30662219  0.42616453     0.40700
H161        H  0.51375819  0.18543612  0.06151714     0.40300
H162        H  0.51523084  0.24592835  0.08041159     0.35200
C163        C  0.33916290  0.22138496  0.46254489    -0.26600
C164        C  0.32624865  0.22461594  0.99580288    -0.14600
C165        C  0.33308346  0.19300690  0.02555634     0.36000
C166        C  0.35716906  0.16027778  0.02432973    -0.26000
C167        C  0.37446529  0.15850980  0.99417556    -0.15200
C168        C  0.36404559  0.19118313  0.46101867     0.37100
N169        N  0.38066403  0.18903128  0.42901933    -0.89500
H170        H  0.33313628  0.24438445  0.43955075     0.18200
H171        H  0.36290396  0.13684050  0.04725806     0.18200
N172        N  0.31585914  0.19457709  0.05702358    -0.88500
H173        H  0.37098694  0.21093979  0.40885133     0.35600
H174        H  0.39990824  0.20741312  0.43474868     0.40700
H175        H  0.32416464  0.16974186  0.07656845     0.40300
H176        H  0.29609022  0.17944087  0.04983565     0.35200
C177        C  0.26841419  0.41013889  0.06377578    -0.26600
C178        C  0.26928663  0.35474623  0.06418228    -0.14600
C179        C  0.26433464  0.32858462  0.09646617     0.36000
C180        C  0.25735525  0.35873887  0.12740418    -0.26000
C181        C  0.25540238  0.41430975  0.12640774    -0.15200
C182        C  0.26210118  0.44019345  0.09442094     0.37100
N183        N  0.26278276  0.49708447  0.09316419    -0.89500
H184        H  0.27324679  0.43042894  0.03941149     0.18200
H185        H  0.25254659  0.33878037  0.15194908     0.18200
N186        N  0.26570213  0.27180458  0.09750093    -0.88500
H187        H  0.26767457  0.50972323  0.06751514     0.35600
H188        H  0.27917923  0.50991968  0.11002474     0.40700
H189        H  0.24961818  0.25693990  0.08091501     0.40300
H190        H  0.26156405  0.25881795  0.12327985     0.35200
C191        C  0.25631420  0.43936830  0.40519597    -0.26600
C192        C  0.24836767  0.41279633  0.37342559    -0.14600
C193        C  0.24798049  0.35685198  0.37231023     0.36000
C194        C  0.25568593  0.32889136  0.40318633    -0.26000
C195        C  0.26320199  0.35595153  0.43499758    -0.15200
C196        C  0.26397087  0.41177986  0.43574424     0.37100
N197        N  0.27324387  0.44040268  0.46729431    -0.89500
H198        H  0.25708516  0.48222862  0.40609555     0.18200
H199        H  0.25524912  0.28601050  0.40270502     0.18200
N200        N  0.23923799  0.32878232  0.34032183    -0.88500
H201        H  0.27163059  0.48124917  0.46381873     0.35600
H202        H  0.29465435  0.43173186  0.47113772     0.40700
H203        H  0.21800548  0.33813467  0.33567972     0.40300
H204        H  0.24024966  0.28790472  0.34401618     0.35200
C205        C  0.06826652  0.95957333  0.02833242    -0.26600
C206        C  0.05045036  0.95790104  0.99820698    -0.14600
C207        C  0.05887237  0.92994728  0.47411414     0.36000
C208        C  0.08337564  0.89877326  0.47419355    -0.26000
C209        C  0.09856755  0.89203483  0.00137331    -0.15200
C210        C  0.09226114  0.92689642  0.03018452     0.37100
N211        N  0.11027457  0.92980060  0.06109649    -0.89500
H212        H  0.06328402  0.98591991  0.05068014     0.18200
H213        H  0.08867089  0.87670253  0.44998441     0.18200
N214        N  0.04236650  0.93148953  0.44166441    -0.88500
H215        H  0.09821184  0.92116595  0.08348348     0.35600
H216        H  0.11737916  0.96873425  0.06405704     0.40700
H217        H  0.02491276  0.95667901  0.44403191     0.40300
H218        H  0.03453990  0.89344060  0.43668278     0.35200
C219        C  0.19495987  0.71852083  0.10141755    -0.26600
C220        C  0.17444883  0.71161268  0.12756405    -0.14600
C221        C  0.14781103  0.73601587  0.12381645     0.36000
C222        C  0.14207958  0.76609072  0.09330803    -0.26000
C223        C  0.16223806  0.77112056  0.06613400    -0.15200
C224        C  0.18925904  0.74761637  0.07093061     0.37100
N225        N  0.21149987  0.75232058  0.04558642    -0.89500
H226        H  0.21563925  0.70040291  0.10448730     0.18200
H227        H  0.12132727  0.78371741  0.09007801     0.18200
N228        N  0.12642599  0.72859340  0.15023256    -0.88500
H229        H  0.21408099  0.79224371  0.03967392     0.35600
H230        H  0.20613225  0.73061488  0.02253157     0.40700
H231        H  0.12125905  0.68842084  0.14981351     0.40300
H232        H  0.10800038  0.74923162  0.14345816     0.35200
C233        C  0.14558869  0.77603074  0.40776218    -0.26600
C234        C  0.16565543  0.78130088  0.43550168    -0.14600
C235        C  0.19287292  0.75920367  0.43086064     0.36000
C236        C  0.19858399  0.72840625  0.40012073    -0.26000
C237        C  0.17803189  0.72077657  0.37335890    -0.15200
C238        C  0.15146434  0.74570926  0.37673565     0.37100
N239        N  0.13015227  0.73806608  0.34956243    -0.89500
H240        H  0.12470576  0.79307044  0.41111949     0.18200
H241        H  0.21919273  0.71001223  0.39702544     0.18200
N242        N  0.21458276  0.76802593  0.45733183    -0.88500
H243        H  0.11179219  0.75916135  0.35617410     0.35600
H244        H  0.12478960  0.69798649  0.34905161     0.40700
H245        H  0.21889029  0.80855374  0.45814514     0.40300
H246        H  0.23330515  0.74870709  0.44994378     0.35200
C247        C  0.39377496  0.81298358  0.47424953    -0.26600
C248        C  0.37940904  0.79814674  0.00602763    -0.14600
C249        C  0.38006895  0.83387645  0.03577375     0.36000
C250        C  0.39607506  0.88023975  0.03381877    -0.26000
C251        C  0.41089879  0.89206641  0.00280903    -0.15200
C252        C  0.40898119  0.85970004  0.47157034     0.37100
N253        N  0.42494672  0.86755588  0.43958474    -0.89500
H254        H  0.39508224  0.78408493  0.45248318     0.18200
H255        H  0.39657422  0.90801518  0.05630124     0.18200
N256        N  0.36407356  0.82405905  0.06742095    -0.88500
H257        H  0.44122938  0.83940368  0.43901941     0.35600
H258        H  0.43440363  0.90468161  0.43935757     0.40700
H259        H  0.34270335  0.82735076  0.06057160     0.40300
H260        H  0.36788479  0.85325982  0.08706450     0.35200
C261        C  0.33175897  0.66999982  0.09841376    -0.26600
C262        C  0.31791325  0.67016553  0.06509610    -0.14600
C263        C  0.28953513  0.65389204  0.06252963     0.36000
C264        C  0.27598974  0.63633362  0.09301477    -0.26000
C265        C  0.28966647  0.63562350  0.12657363    -0.15200
C266        C  0.31802334  0.65259578  0.12923801     0.37100
N267        N  0.33286919  0.65194071  0.16290424    -0.89500
H268        H  0.35351559  0.68271911  0.10026551     0.18200
H269        H  0.25417571  0.62426673  0.09042403     0.18200
N270        N  0.27417803  0.65677246  0.02921888    -0.88500
H271        H  0.35319948  0.66709523  0.16030203     0.35600
H272        H  0.33534329  0.61235742  0.17000271     0.40700
H273        H  0.27227661  0.69675448  0.02284828     0.40300
H274        H  0.25363324  0.64265217  0.03184900     0.35200
C275        C  0.32034024  0.70416841  0.40704128    -0.26600
C276        C  0.32369991  0.66906078  0.43551936    -0.14600
C277        C  0.31312156  0.61708016  0.43174817     0.36000
C278        C  0.29760007  0.60282090  0.40099222    -0.26000
C279        C  0.29306532  0.63866627  0.37338289    -0.15200
C280        C  0.30510080  0.68950233  0.37596769     0.37100
N281        N  0.30086571  0.72667909  0.34779681    -0.89500
H282        H  0.32843925  0.74405088  0.40965845     0.18200
H283        H  0.28887340  0.56337866  0.39854300     0.18200
N284        N  0.31802383  0.57898531  0.45919695    -0.88500
H285        H  0.31117369  0.76223211  0.35386706     0.35600
H286        H  0.27930241  0.73559614  0.34650471     0.40700
H287        H  0.33979411  0.57232338  0.46082325     0.40300
H288        H  0.30897806  0.54264617  0.45207419     0.35200
C289        C  0.35987558  0.75449593  0.50358967     0.80000
N290        N  0.35466282  0.72765339  0.97262791    -0.78300
C291        C  0.33739937  0.68521517  0.97044925     0.82400
N292        N  0.32655096  0.66591233  0.00079694    -0.79600
C293        C  0.33398339  0.68971082  0.53317251     0.82500
N294        N  0.35073644  0.73303292  0.53444106    -0.80000
C295        C  0.12508937  0.85784929  0.50389625     0.80000
N296        N  0.13459875  0.83910497  0.97047580    -0.78300
C297        C  0.15571522  0.80275179  0.96975768     0.82400
N298        N  0.16501957  0.78207227  0.00093054    -0.78300
C299        C  0.15654964  0.79985078  0.53329400     0.82500
N300        N  0.13547176  0.83659373  0.53441635    -0.80000
C301        C  0.29955780  0.26347320  0.49603093     0.80000
N302        N  0.29398387  0.28727114  0.96617031    -0.78300
C303        C  0.27564907  0.32874796  0.96719136     0.82400
N304        N  0.26663850  0.34775804  0.99922790    -0.78300
C305        C  0.27310581  0.32511126  0.53029492     0.82500
N306        N  0.29171987  0.28423539  0.52834377    -0.80000
N307        N  0.47133809  0.98297638  0.49676837    -0.36800
N308        N  0.00454503  0.07957707  0.50442752    -0.57400
N309        N  0.45082823  0.14033828  0.48999807    -0.36800
N310        N  0.41888143  0.04338334  0.49532992    -0.57400
C311        C  0.49714152  0.96512323  0.50656534     0.26700
C312        C  0.45255455  0.94590381  0.50601558     0.26700
C313        C  0.46933975  0.17941703  0.49761153     0.26700
C314        C  0.42476169  0.15974957  0.49695486     0.26700
C315        C  0.02638557  0.04531554  0.50068154     0.35400
C316        C  0.01466228  0.12804413  0.49744032     0.35400
C317        C  0.40852174  0.99425393  0.49038970     0.35400
C318        C  0.39772415  0.07700030  0.48705731     0.35400
C319        C  0.49478115  0.91586794  0.52187036    -0.22100
C320        C  0.46655511  0.90372799  0.52156009    -0.22100
C321        C  0.45486917  0.22449992  0.50908171    -0.22100
C322        C  0.42666687  0.21205050  0.50867707    -0.22100
C323        C  0.05063414  0.07218083  0.49180069    -0.23200
C324        C  0.04322638  0.12474514  0.48991155    -0.23200
C325        C  0.38057922  0.99655218  0.47920428    -0.23200
C326        C  0.37369217  0.04923577  0.47715367    -0.23200
C327        C  0.02500222  0.99060925  0.50724243    -0.18500
C328        C  0.42338098  0.94761701  0.49854150    -0.18500
C329        C  0.39926617  0.13229435  0.49116732    -0.18500
C330        C  0.99885773  0.17550666  0.50038893    -0.18500
H331        H  0.01501424  0.89026153  0.53902378     0.14400
H332        H  0.45740212  0.86772896  0.53132293     0.14400
H333        H  0.46370209  0.26246593  0.51681978     0.14400
H334        H  0.40951227  0.23856140  0.51596736     0.14400
H335        H  0.07154268  0.05575491  0.48767457     0.12700
H336        H  0.05731971  0.15686341  0.48404460     0.12700
H337        H  0.36654827  0.96374758  0.47361811     0.12700
H338        H  0.35329007  0.06528580  0.46966397     0.12700
H339        H  0.46697374  0.01677969  0.48236605     0.25900
H340        H  0.45562214  0.10348647  0.47877002     0.25900
C341        C  0.06516910  0.36773240  0.49687756     0.80000
N342        N  0.07444317  0.38855118  0.52869563    -0.78300
C343        C  0.09250241  0.42989483  0.53005667     0.82400
N344        N  0.10387133  0.44687421  0.99783858    -0.78300
C345        C  0.09519309  0.42774866  0.96546185     0.82500
N346        N  0.07743703  0.38571263  0.96402157    -0.80000
O347        O  0.28406624  0.63090753  0.81226876    -0.75500
O348        O  0.25321029  0.59736552  0.85224560    -0.54400
C349        C  0.27613023  0.62098122  0.84425371     0.78200
O350        O  0.17999430  0.69673050  0.69001081    -0.60100
O351        O  0.19760647  0.63582900  0.65010785    -0.53200
C352        C  0.18571724  0.68021915  0.65808139     0.70200
O353        O  0.18060521  0.70051772  0.81083508    -0.74700
O354        O  0.19751331  0.64095128  0.85093161    -0.55200
C355        C  0.18611852  0.68545732  0.84281493     0.76200
O356        O  0.28521937  0.62773896  0.69089253    -0.59800
O357        O  0.25292845  0.59491726  0.65127444    -0.52900
C358        C  0.27618491  0.61827704  0.65881243     0.72800
Zr359      Zr  0.26781943  0.61112711  0.75118102     2.54700
O360        O  0.28535057  0.70149341  0.75239849    -0.80400
O361        O  0.31609688  0.57744372  0.75170296    -0.93800
Zr362      Zr  0.18800201  0.66498271  0.75052560     2.64700
O363        O  0.20572733  0.75527235  0.75137510    -0.98800
O364        O  0.13900906  0.69479715  0.74954599    -0.80800
O365        O  0.22821556  0.64016722  0.78495796    -0.84200
O366        O  0.22836589  0.63963407  0.71703960    -2.18900
O367        O  0.25090377  0.42994482  0.68923245    -0.67600
O368        O  0.23339958  0.49001145  0.65018476    -0.52100
C369        C  0.24629962  0.44674360  0.65741091     0.71200
O370        O  0.14431093  0.49410969  0.80899778    -0.60500
O371        O  0.17504946  0.52977099  0.84995674    -0.52500
C372        C  0.15256121  0.50422642  0.84131250     0.73000
O373        O  0.14272499  0.49893174  0.68814147    -0.71900
O374        O  0.17516788  0.52955052  0.64933775    -0.50600
C375        C  0.15151383  0.50804729  0.65636647     0.74400
O376        O  0.24767975  0.42893216  0.80990653    -0.67200
O377        O  0.23164778  0.49096277  0.84993162    -0.54400
C378        C  0.24311274  0.44607847  0.84201550     0.72800
Zr379      Zr  0.24000255  0.46265704  0.74968923     2.77500
O380        O  0.21914689  0.37495088  0.74696692    -0.98000
O381        O  0.28779830  0.42664595  0.75176448    -0.78800
Zr382      Zr  0.16014376  0.51586853  0.74908605     2.70100
O383        O  0.14050600  0.42720840  0.74509022    -0.80000
O384        O  0.11342865  0.55664856  0.75096401    -0.99100
Zr385      Zr  0.21399938  0.56482585  0.81698781     2.21500
Zr386      Zr  0.21422945  0.56246773  0.68450731     2.11100
O387        O  0.19972914  0.48643257  0.71534472    -2.47800
O388        O  0.19986130  0.48846184  0.78353435    -0.79800
O389        O  0.25041147  0.53885306  0.72108037    -0.72000
O390        O  0.17334257  0.59141997  0.78410497    -2.33000
O391        O  0.25493787  0.53672800  0.78495598    -2.29200
O392        O  0.17332358  0.59041287  0.71559358    -0.73800
H393        H  0.23381374  0.66781386  0.70153756     0.78200
H394        H  0.15814134  0.60179577  0.79987313     0.79300
H395        H  0.19455657  0.45779180  0.69913627     0.81500
H396        H  0.27015295  0.52665131  0.80082391     0.79100
H397        H  0.13999309  0.73363421  0.75338670     0.42200
H398        H  0.11056294  0.57141515  0.72687157     0.41100
H399        H  0.15309695  0.40559250  0.76029775     0.40800
H400        H  0.23406072  0.35129560  0.75644960     0.38800
H401        H  0.29838022  0.44718311  0.73412696     0.41900
H402        H  0.31756881  0.55652436  0.77374312     0.36700
H403        H  0.27279323  0.72085926  0.76926089     0.42800
H404        H  0.22312988  0.75345475  0.73693128     0.39200
H405        H  0.20456992  0.37598559  0.76577264     0.44100
H406        H  0.32772576  0.60914799  0.75686258     0.42900
H407        H  0.19213831  0.77549769  0.73663714     0.43000
H408        H  0.10027325  0.52645075  0.75174130     0.43300
C409        C  0.11701053  0.50128544  0.56437402    -0.26600
C410        C  0.10415912  0.45129137  0.56456039    -0.14600
C411        C  0.10476910  0.42259365  0.59685163     0.36000
C412        C  0.11933597  0.44304066  0.62678295    -0.26000
C413        C  0.13373503  0.49126251  0.62550168    -0.15200
C414        C  0.13186921  0.52122887  0.59400143     0.37100
N415        N  0.14455045  0.57230648  0.59118801    -0.89500
H416        H  0.11622800  0.52493784  0.54055224     0.18200
H417        H  0.12034528  0.41987356  0.65084013     0.18200
N418        N  0.09165916  0.37209866  0.60013145    -0.88500
H419        H  0.16648301  0.56821061  0.59206656     0.35600
H420        H  0.13789733  0.59637902  0.61263222     0.40700
H421        H  0.10017508  0.34573856  0.58113033     0.40300
H422        H  0.06998070  0.37662174  0.59577751     0.35200
C423        C  0.10743578  0.41905406  0.90068852    -0.26600
C424        C  0.10682695  0.45022263  0.93230320    -0.14600
C425        C  0.11911098  0.50115487  0.93239841     0.36000
C426        C  0.13335203  0.51786134  0.90202939    -0.26000
C427        C  0.13515622  0.48572896  0.87112979    -0.15200
C428        C  0.12158460  0.43615151  0.87011622     0.37100
N429        N  0.12315482  0.40246895  0.83871139    -0.89500
H430        H  0.09793261  0.38018772  0.90024767     0.18200
H431        H  0.14323109  0.55642847  0.90250677     0.18200
N432        N  0.11722485  0.53587236  0.96327857    -0.88500
H433        H  0.11185531  0.36762334  0.84229092     0.35600
H434        H  0.14427050  0.39123431  0.83541353     0.40700
H435        H  0.09593931  0.54572640  0.96672600     0.40300
H436        H  0.12779058  0.57135839  0.95908345     0.35200
C437        C  0.01719464  0.25536921  0.96462045    -0.26600
C438        C  0.01425314  0.22641063  0.50010384    -0.14600
C439        C  0.53039624  0.24162475  0.52514958     0.36000
C440        C  0.03923120  0.29844268  0.52976480    -0.26000
C441        C  0.04669003  0.31992573  0.49666856    -0.15200
C442        C  0.03388177  0.30086285  0.96345590     0.37100
N443        N  0.03448341  0.33072200  0.93134698    -0.89500
H444        H  0.00526366  0.24305726  0.94106262     0.18200
H445        H  0.04612110  0.31705340  0.55460074     0.18200
N446        N  0.52988474  0.21272409  0.55790440    -0.88500
H447        H  0.01384485  0.34259885  0.92525176     0.35600
H448        H  0.04154193  0.30571204  0.91060698     0.40700
H449        H  0.51640689  0.18032331  0.55616684     0.40300
H450        H  0.52157267  0.23797623  0.57773451     0.35200
C451        C  0.34307880  0.22060382  0.96500835    -0.26600
C452        C  0.32294679  0.22434251  0.49390231    -0.14600
C453        C  0.33103714  0.19364767  0.52358377     0.36000
C454        C  0.35595255  0.16344307  0.52190555    -0.26000
C455        C  0.37262624  0.16291735  0.49121438    -0.15200
C456        C  0.36726912  0.18832031  0.96405372     0.37100
N457        N  0.38466780  0.18587867  0.93273020    -0.89500
H458        H  0.33811752  0.24441546  0.94201195     0.18200
H459        H  0.36265727  0.14062233  0.54472535     0.18200
N460        N  0.31414628  0.19345850  0.55533557    -0.88500
H461        H  0.37601354  0.20914643  0.91254356     0.35600
H462        H  0.40414064  0.20264173  0.93948026     0.40700
H463        H  0.32331622  0.16932988  0.57469002     0.40300
H464        H  0.29474163  0.17650733  0.54842592     0.35200
C465        C  0.26849908  0.40925252  0.56363310    -0.26600
C466        C  0.26815577  0.35389847  0.56434009    -0.14600
C467        C  0.26350310  0.32836884  0.59693036     0.36000
C468        C  0.25736449  0.35925963  0.62777170    -0.26000
C469        C  0.25624689  0.41484202  0.62637476    -0.15200
C470        C  0.26316363  0.43998372  0.59423694     0.37100
N471        N  0.26491458  0.49675771  0.59277884    -0.89500
H472        H  0.27336296  0.42888066  0.53901684     0.18200
H473        H  0.25252124  0.33993044  0.65254345     0.18200
N474        N  0.26435451  0.27158765  0.59840662    -0.88500
H475        H  0.26991461  0.50883297  0.56703354     0.35600
H476        H  0.28162626  0.50862922  0.60945589     0.40700
H477        H  0.24780709  0.25697686  0.58248362     0.40300
H478        H  0.26063577  0.25922194  0.62444283     0.35200
C479        C  0.25773051  0.44058146  0.90522736    -0.26600
C480        C  0.25225736  0.41371322  0.87272080    -0.14600
C481        C  0.25561533  0.35799763  0.87083125     0.36000
C482        C  0.26387771  0.33071625  0.90181531    -0.26000
C483        C  0.26842268  0.35797452  0.93446675    -0.15200
C484        C  0.26603427  0.41371971  0.93580588     0.37100
N485        N  0.27271138  0.44325184  0.96804058    -0.89500
H486        H  0.25599656  0.48334826  0.90681323     0.18200
H487        H  0.26605421  0.28799223  0.90073710     0.18200
N488        N  0.25013250  0.32924586  0.83796164    -0.88500
H489        H  0.26927093  0.48379079  0.96474497     0.35600
H490        H  0.29429697  0.43830755  0.97309720     0.40700
H491        H  0.22860539  0.33317922  0.83215709     0.40300
H492        H  0.25403559  0.28881225  0.84110185     0.35200
C493        C  0.06843233  0.95537530  0.53613102    -0.26600
C494        C  0.05129821  0.95857388  0.50553454    -0.14600
C495        C  0.05690842  0.92354146  0.96906340     0.36000
C496        C  0.08081855  0.89114117  0.97106660    -0.26000
C497        C  0.10042406  0.89449561  0.50497048    -0.15200
C498        C  0.09283239  0.92354320  0.53621025     0.37100
N499        N  0.10983498  0.92129365  0.56800264    -0.89500
H500        H  0.06261611  0.97726552  0.56022741     0.18200
H501        H  0.08528654  0.86445597  0.94872351     0.18200
N502        N  0.03991769  0.92062057  0.93701425    -0.88500
H503        H  0.09725145  0.90771275  0.58867559     0.35600
H504        H  0.11623976  0.95974799  0.57477563     0.40700
H505        H  0.02356218  0.94848394  0.93720051     0.40300
H506        H  0.03062686  0.88321960  0.93581073     0.35200
C507        C  0.19873720  0.72060387  0.60118955    -0.26600
C508        C  0.17867854  0.71460388  0.62804088    -0.14600
C509        C  0.15204824  0.73914619  0.62483379     0.36000
C510        C  0.14581562  0.76842889  0.59419882    -0.26000
C511        C  0.16547685  0.77276588  0.56640845    -0.15200
C512        C  0.19250925  0.74902871  0.57052583     0.37100
N513        N  0.21419576  0.75287577  0.54433092    -0.89500
H514        H  0.21939542  0.70225088  0.60382170     0.18200
H515        H  0.12503225  0.78610285  0.59143387     0.18200
N516        N  0.13113412  0.73264686  0.65198462    -0.88500
H517        H  0.21693543  0.79267454  0.53818869     0.35600
H518        H  0.20812221  0.73127747  0.52150160     0.40700
H519        H  0.12588291  0.69253354  0.65225106     0.40300
H520        H  0.11262527  0.75323384  0.64550669     0.35200
C521        C  0.14637573  0.77727630  0.90621805    -0.26600
C522        C  0.16548312  0.78025382  0.93517530    -0.14600
C523        C  0.19263403  0.75760636  0.93151305     0.36000
C524        C  0.19899008  0.72765040  0.90065343    -0.26000
C525        C  0.17921028  0.72167778  0.87281230    -0.15200
C526        C  0.15299594  0.74823088  0.87494510     0.37100
N527        N  0.13279111  0.74375927  0.84614605    -0.89500
H528        H  0.12563946  0.79528552  0.90863836     0.18200
H529        H  0.21949248  0.70860239  0.89831393     0.18200
N530        N  0.21364269  0.76513707  0.95902806    -0.88500
H531        H  0.11467906  0.76614012  0.85190016     0.35600
H532        H  0.12648146  0.70422888  0.84424825     0.40700
H533        H  0.21814819  0.80556144  0.96066410     0.40300
H534        H  0.23246052  0.74571575  0.95217761     0.35200
C535        C  0.39501602  0.80992801  0.97539961    -0.26600
C536        C  0.37678139  0.80339899  0.50399021    -0.14600
C537        C  0.37520776  0.84177563  0.53204099     0.36000
C538        C  0.39091054  0.88838660  0.52965041    -0.26000
C539        C  0.40754220  0.89770989  0.49969553    -0.15200
C540        C  0.41056052  0.85638251  0.97328659     0.37100
N541        N  0.42502156  0.86642056  0.94046423    -0.89500
H542        H  0.39490357  0.78314589  0.95238676     0.18200
H543        H  0.38991258  0.91808577  0.55095597     0.18200
N544        N  0.35723514  0.83421568  0.56226402    -0.88500
H545        H  0.44076098  0.83749930  0.93739597     0.35600
H546        H  0.43511621  0.90296520  0.94105326     0.40700
H547        H  0.33637059  0.83480970  0.55294553     0.40300
H548        H  0.35908471  0.86580170  0.58063558     0.35200
C549        C  0.33404573  0.67209445  0.59889113    -0.26600
C550        C  0.31993535  0.67117202  0.56565439    -0.14600
C551        C  0.29176057  0.65365422  0.56357212     0.36000
C552        C  0.27871028  0.63588521  0.59422271    -0.26000
C553        C  0.29255319  0.63619236  0.62763590    -0.15200
C554        C  0.32069305  0.65440512  0.63000420     0.37100
N555        N  0.33564592  0.65466292  0.66361630    -0.89500
H556        H  0.35560776  0.68596150  0.60045886     0.18200
H557        H  0.25702958  0.62295946  0.59183677     0.18200
N558        N  0.27596848  0.65573411  0.53054700    -0.88500
H559        H  0.35584794  0.67028328  0.66077437     0.35600
H560        H  0.33842545  0.61527134  0.67101869     0.40700
H561        H  0.27338805  0.69561973  0.52423771     0.40300
H562        H  0.25568587  0.64050570  0.53346801     0.35200
C563        C  0.32225370  0.70182193  0.90785954    -0.26600
C564        C  0.32645870  0.66574021  0.93553269    -0.14600
C565        C  0.31655703  0.61342912  0.93121302     0.36000
C566        C  0.30046451  0.59973853  0.90084353    -0.26000
C567        C  0.29482984  0.63667701  0.87421836    -0.15200
C568        C  0.30633420  0.68789663  0.87725200     0.37100
N569        N  0.30064432  0.72626711  0.85021740    -0.89500
H570        H  0.32985766  0.74198755  0.91106622     0.18200
H571        H  0.29211568  0.56004497  0.89796204     0.18200
N572        N  0.32260305  0.57463621  0.95787317    -0.88500
H573        H  0.31072398  0.76197559  0.85651513     0.35600
H574        H  0.27896589  0.73430578  0.85038109     0.40700
H575        H  0.34446865  0.56883309  0.95853023     0.40300
H576        H  0.31374352  0.53815930  0.95060917     0.35200
C577        C  0.86052252  0.75233175  0.00316953     0.80000
N578        N  0.85391831  0.72882996  0.47221641    -0.78300
C579        C  0.83730482  0.68539721  0.46987177     0.82400
N580        N  0.82740157  0.66449191  0.50026322    -0.79600
C581        C  0.83224551  0.69114933  0.03296219     0.82500
N582        N  0.85011885  0.73283642  0.03399886    -0.80000
C583        C  0.62562210  0.85584889  0.00189861     0.80000
N584        N  0.63327225  0.83886787  0.47234311    -0.78300
C585        C  0.65452212  0.80273693  0.47144277     0.82400
N586        N  0.66395036  0.78205518  0.50248400    -0.78300
C587        C  0.65562360  0.79691763  0.03252847     0.82500
N588        N  0.63502874  0.83457172  0.03284797    -0.80000
C589        C  0.80021044  0.26303977  0.99816104     0.80000
N590        N  0.79283616  0.28635987  0.46505612    -0.78300
C591        C  0.77575509  0.32956323  0.46751194     0.82400
N592        N  0.76827724  0.34855224  0.50017115    -0.78300
C593        C  0.77325595  0.32430673  0.03211630     0.82500
N594        N  0.79191551  0.28345266  0.03039320    -0.80000
N595        N  0.97255878  0.98192992  0.99641030    -0.36800
N596        N  0.50556257  0.07756344  0.99973049    -0.57400
N597        N  0.95181662  0.13963187  0.99252687    -0.36800
N598        N  0.91992574  0.04212971  0.99715683    -0.57400
C599        C  0.99861278  0.96330832  0.00431408     0.26700
C600        C  0.95407147  0.94348760  0.00406698     0.26700
C601        C  0.97042243  0.17876757  0.99968517     0.26700
C602        C  0.92582711  0.15896240  0.00006952     0.26700
C603        C  0.52735632  0.04321489  0.99599300     0.35400
C604        C  0.51588756  0.12609131  0.99346613     0.35400
C605        C  0.90937914  0.99300306  0.99247472     0.35400
C606        C  0.89842393  0.07610158  0.99092781     0.35400
C607        C  0.99670020  0.91212084  0.01670397    -0.22100
C608        C  0.96855434  0.89958903  0.01653589    -0.22100
C609        C  0.95608173  0.22380925  0.01146731    -0.22100
C610        C  0.92789996  0.21126596  0.01177963    -0.22100
C611        C  0.55176610  0.07012280  0.98781384    -0.23200
C612        C  0.54450174  0.12275409  0.98630867    -0.23200
C613        C  0.88093535  0.99569838  0.98367699    -0.23200
C614        C  0.87397729  0.04847561  0.98268552    -0.23200
C615        C  0.52580925  0.98827092  0.00165939    -0.18500
C616        C  0.92464829  0.94578366  0.99822780    -0.18500
C617        C  0.90018613  0.13159032  0.99482190    -0.18500
C618        C  0.50030966  0.17367007  0.99707498    -0.18500
H619        H  0.51604657  0.88438545  0.02798021     0.14400
H620        H  0.95978266  0.86220887  0.02441357     0.14400
H621        H  0.96498865  0.26180551  0.01898093     0.14400
H622        H  0.91084842  0.23776227  0.01948026     0.14400
H623        H  0.57268570  0.05367044  0.98383215     0.12700
H624        H  0.55872873  0.15493763  0.98108225     0.12700
H625        H  0.86664618  0.96306384  0.97882510     0.12700
H626        H  0.85325526  0.06463180  0.97690476     0.12700
H627        H  0.96778332  0.01747899  0.98439379     0.25900
H628        H  0.95645824  0.10285016  0.98116879     0.25900
C629        C  0.56620807  0.36622319  0.99645273     0.80000
N630        N  0.57406981  0.38808967  0.02853909    -0.78300
C631        C  0.59192915  0.42968125  0.03051885     0.82400
N632        N  0.60226976  0.44848957  0.49819103    -0.78300
C633        C  0.59348083  0.42992247  0.46573610     0.82500
N634        N  0.57567490  0.38793827  0.46400825    -0.80000
O635        O  0.78459824  0.63138133  0.31077782    -0.75500
O636        O  0.75335683  0.59998077  0.35117904    -0.54400
C637        C  0.77667066  0.62205835  0.34285502     0.78200
O638        O  0.67586776  0.69429460  0.19029907    -0.60100
O639        O  0.69491228  0.63484113  0.15034375    -0.53200
C640        C  0.68214600  0.67835459  0.15838448     0.70200
O641        O  0.67915083  0.70054277  0.31196242    -0.74700
O642        O  0.69682865  0.64188077  0.35211759    -0.55200
C643        C  0.68504834  0.68594202  0.34401202     0.76200
O644        O  0.78284402  0.62978861  0.18999145    -0.59800
O645        O  0.75054127  0.59618615  0.15056393    -0.52900
C646        C  0.77371488  0.62006196  0.15800747     0.72800
Zr647      Zr  0.76618983  0.61376749  0.25058807     2.54700
O648        O  0.78183283  0.70525111  0.24924179    -0.80400
O649        O  0.81440270  0.57980032  0.24932293    -0.93800
Zr650      Zr  0.68556808  0.66463187  0.25114117     2.64700
O651        O  0.70081590  0.75638947  0.24930060    -0.98800
O652        O  0.63638922  0.69304049  0.25293463    -0.80800
O653        O  0.72651362  0.64191170  0.28488225    -0.84200
O654        O  0.72579914  0.63937170  0.21730617    -2.18900
O655        O  0.75086691  0.43026776  0.19093703    -0.67600
O656        O  0.73224131  0.48862024  0.15136854    -0.52100
C657        C  0.74585670  0.44617703  0.15899129     0.71200
O658        O  0.64352022  0.49606964  0.31054073    -0.60500
O659        O  0.67455523  0.53170748  0.35119415    -0.52500
C660        C  0.65194067  0.50642656  0.34272169     0.73000
O661        O  0.64104078  0.49903687  0.18946236    -0.71900
O662        O  0.67345622  0.52776560  0.14983664    -0.50600
C663        C  0.64963391  0.50735839  0.15744712     0.74400
O664        O  0.74737787  0.43215048  0.31184159    -0.67200
O665        O  0.73133434  0.49443269  0.35173540    -0.54400
C666        C  0.74284336  0.44958853  0.34390759     0.72800
Zr667      Zr  0.73960932  0.46351860  0.25106232     2.77500
O668        O  0.72098784  0.37399747  0.24832688    -0.98000
O669        O  0.78824276  0.43226158  0.25451368    -0.78800
Zr670      Zr  0.65947698  0.51429606  0.25033449     2.70100
O671        O  0.64686417  0.42107412  0.24796190    -0.80000
O672        O  0.61053951  0.54423048  0.25278338    -0.99100
Zr673      Zr  0.71326272  0.56669285  0.31765249     2.21500
Zr674      Zr  0.71236480  0.56205631  0.18452696     2.11100
O675        O  0.69918622  0.48645319  0.21665532    -2.47800
O676        O  0.69955460  0.48953976  0.28491694    -0.79800
O677        O  0.75340593  0.53700931  0.21678238    -0.72000
O678        O  0.67202562  0.59084389  0.28495417    -2.33000
O679        O  0.75374205  0.53945318  0.28477454    -2.29200
O680        O  0.67160326  0.58910474  0.21661248    -0.73800
H681        H  0.73075932  0.66763437  0.20160529     0.78200
H682        H  0.65682580  0.60091566  0.30080287     0.79300
H683        H  0.69411511  0.45741560  0.20071476     0.81500
H684        H  0.76919514  0.52994817  0.30044657     0.79100
H685        H  0.62557615  0.65976903  0.25410099     0.42200
H686        H  0.60751831  0.56395772  0.23045532     0.41100
H687        H  0.62603725  0.42094594  0.24974442     0.40800
H688        H  0.73513700  0.35237548  0.26121448     0.38800
H689        H  0.79881029  0.45654177  0.23918738     0.41900
H690        H  0.82592490  0.61046436  0.24251651     0.36700
H691        H  0.77361971  0.72223892  0.27090219     0.42800
H692        H  0.71621585  0.75631144  0.23157784     0.39200
H693        H  0.70441376  0.37526923  0.26426894     0.44100
H694        H  0.81495436  0.55564174  0.22814046     0.42900
H695        H  0.68504180  0.77541297  0.23754714     0.43000
H696        H  0.59930912  0.51160379  0.24938547     0.43300
C697        C  0.61440591  0.50220157  0.06595158    -0.26600
C698        C  0.60241076  0.45148429  0.06548694    -0.14600
C699        C  0.60320850  0.42210948  0.09751088     0.36000
C700        C  0.61744321  0.44247382  0.12773149    -0.26000
C701        C  0.63140339  0.49115770  0.12689004    -0.15200
C702        C  0.62907151  0.52194586  0.09579677     0.37100
N703        N  0.64125644  0.57352632  0.09357863    -0.89500
H704        H  0.61333761  0.52632359  0.04235444     0.18200
H705        H  0.61879655  0.41872343  0.15150352     0.18200
N706        N  0.59088630  0.37080349  0.10009647    -0.88500
H707        H  0.66322243  0.57014362  0.09420895     0.35600
H708        H  0.63454068  0.59662774  0.11544840     0.40700
H709        H  0.60003599  0.34536650  0.08101132     0.40300
H710        H  0.56918925  0.37414470  0.09538100     0.35200
C711        C  0.60687381  0.42089713  0.40150323    -0.26600
C712        C  0.60538554  0.45250367  0.43283369    -0.14600
C713        C  0.61741410  0.50368161  0.43311058     0.36000
C714        C  0.63202155  0.52050170  0.40304283    -0.26000
C715        C  0.63453742  0.48800743  0.37242671    -0.15200
C716        C  0.62153024  0.43792379  0.37136470     0.37100
N717        N  0.62426692  0.40364520  0.34037590    -0.89500
H718        H  0.59775919  0.38169932  0.40104658     0.18200
H719        H  0.64162717  0.55931712  0.40352943     0.18200
N720        N  0.61497950  0.53840250  0.46392437    -0.88500
H721        H  0.61336414  0.36834083  0.34389033     0.35600
H722        H  0.64559565  0.39337756  0.33796554     0.40700
H723        H  0.59361252  0.54793777  0.46692893     0.40300
H724        H  0.62547260  0.57402425  0.45993418     0.35200
C725        C  0.51581622  0.25679084  0.46362413    -0.26600
C726        C  0.51596061  0.22425200  0.99768522    -0.14600
C727        C  0.03181096  0.24088938  0.02623935     0.36000
C728        C  0.54449131  0.29086737  0.02782168    -0.26000
C729        C  0.54820810  0.31794638  0.99565263    -0.15200
C730        C  0.53201788  0.30299285  0.46298478     0.37100
N731        N  0.53172583  0.33440113  0.43154835    -0.89500
H732        H  0.50380758  0.24486610  0.44004230     0.18200
H733        H  0.55435217  0.30506917  0.05234161     0.18200
N734        N  0.03184364  0.21164346  0.05887090    -0.88500
H735        H  0.51086483  0.34582874  0.42633885     0.35600
H736        H  0.53860205  0.31062119  0.41007418     0.40700
H737        H  0.01857101  0.17893715  0.05725480     0.40300
H738        H  0.02365521  0.23653161  0.07898262     0.35200
C739        C  0.84265587  0.22045900  0.46298121    -0.26600
C740        C  0.82378569  0.22422401  0.99636029    -0.14600
C741        C  0.83100862  0.19197599  0.02560241     0.36000
C742        C  0.85595167  0.16168741  0.02435985    -0.26000
C743        C  0.87362698  0.16283362  0.99457885    -0.15200
C744        C  0.86703524  0.18867883  0.46238542     0.37100
N745        N  0.88568212  0.18914042  0.43225290    -0.89500
H746        H  0.83872399  0.24701419  0.44109366     0.18200
H747        H  0.86187885  0.13745199  0.04682658     0.18200
N748        N  0.81320035  0.19030753  0.05648513    -0.88500
H749        H  0.87753404  0.21343543  0.41230006     0.35600
H750        H  0.90467166  0.20620682  0.44072254     0.40700
H751        H  0.82180117  0.16522708  0.07568687     0.40300
H752        H  0.79398740  0.17375075  0.04831337     0.35200
C753        C  0.76913341  0.40846828  0.06572658    -0.26600
C754        C  0.76807811  0.35311553  0.06615828    -0.14600
C755        C  0.76264457  0.32755928  0.09853699     0.36000
C756        C  0.75664688  0.35847616  0.12944491    -0.26000
C757        C  0.75616057  0.41410082  0.12823098    -0.15200
C758        C  0.76371322  0.43919174  0.09634882     0.37100
N759        N  0.76589410  0.49593231  0.09516217    -0.89500
H760        H  0.77458109  0.42807419  0.04131979     0.18200
H761        H  0.75125168  0.33919632  0.15404585     0.18200
N762        N  0.76247081  0.27074701  0.09967519    -0.88500
H763        H  0.77137699  0.50804309  0.06958934     0.35600
H764        H  0.78242005  0.50730849  0.11229348     0.40700
H765        H  0.74582766  0.25739340  0.08340931     0.40300
H766        H  0.75824760  0.25831409  0.12556505     0.35200
C767        C  0.75773372  0.44335095  0.40712898    -0.26600
C768        C  0.75187729  0.41706666  0.37450018    -0.14600
C769        C  0.75477073  0.36133768  0.37214907     0.36000
C770        C  0.76290479  0.33332040  0.40276606    -0.26000
C771        C  0.76813034  0.35987597  0.43546453    -0.15200
C772        C  0.76626941  0.41569054  0.43732916     0.37100
N773        N  0.77382926  0.44438008  0.46959409    -0.89500
H774        H  0.75626215  0.48613043  0.40900204     0.18200
H775        H  0.76463920  0.29054417  0.40129684     0.18200
N776        N  0.74905732  0.33330578  0.33906623    -0.88500
H777        H  0.77057094  0.48504906  0.46677242     0.35600
H778        H  0.79548159  0.43880265  0.47382699     0.40700
H779        H  0.72753931  0.33775410  0.33337785     0.40300
H780        H  0.75277281  0.29273823  0.34178488     0.35200
C781        C  0.57023935  0.95764730  0.03048198    -0.26600
C782        C  0.55220162  0.95652795  0.00056344    -0.14600
C783        C  0.55497265  0.92182475  0.47130943     0.36000
C784        C  0.57890586  0.88938788  0.47347924    -0.26000
C785        C  0.60118914  0.89259964  0.00183299    -0.15200
C786        C  0.59460584  0.92582693  0.03145629     0.37100
N787        N  0.61260328  0.92772564  0.06242152    -0.89500
H788        H  0.56512209  0.98281696  0.05338141     0.18200
H789        H  0.58307681  0.86173949  0.45157260     0.18200
N790        N  0.53752591  0.91731478  0.43972137    -0.88500
H791        H  0.60066958  0.91725034  0.08453394     0.35600
H792        H  0.61923309  0.96679135  0.06642729     0.40700
H793        H  0.52109859  0.94502124  0.43970209     0.40300
H794        H  0.52831316  0.87984049  0.43953743     0.35200
C795        C  0.69661990  0.72275778  0.10375343    -0.26600
C796        C  0.67530400  0.71280812  0.12836532    -0.14600
C797        C  0.64798938  0.73339387  0.12279028     0.36000
C798        C  0.64236335  0.76225736  0.09174995    -0.26000
C799        C  0.66344365  0.77020974  0.06611121    -0.15200
C800        C  0.69108480  0.75109102  0.07287733     0.37100
N801        N  0.71411542  0.76029997  0.04936065    -0.89500
H802        H  0.71780779  0.70780035  0.10842212     0.18200
H803        H  0.62114822  0.77690578  0.08694645     0.18200
N804        N  0.62598022  0.72360493  0.14798166    -0.88500
H805        H  0.71519115  0.80083015  0.04450197     0.35600
H806        H  0.71055139  0.73947393  0.02540770     0.40700
H807        H  0.62235381  0.68284114  0.14781218     0.40300
H808        H  0.60709785  0.74153832  0.13985442     0.35200
C809        C  0.64453496  0.77472075  0.40863670    -0.26600
C810        C  0.66416913  0.77998998  0.43685205    -0.14600
C811        C  0.69161157  0.75869020  0.43267392     0.36000
C812        C  0.69811099  0.72940207  0.40152101    -0.26000
C813        C  0.67799878  0.72187360  0.37418888    -0.15200
C814        C  0.65106998  0.74537298  0.37745241     0.37100
N815        N  0.63001914  0.73701704  0.35004375    -0.89500
H816        H  0.62343057  0.79086886  0.41173705     0.18200
H817        H  0.71892546  0.71178081  0.39865536     0.18200
N818        N  0.71271422  0.76657498  0.46004235    -0.88500
H819        H  0.61129709  0.75693132  0.35666705     0.35600
H820        H  0.62529339  0.69664674  0.34920510     0.40700
H821        H  0.71685581  0.80712025  0.46191654     0.40300
H822        H  0.73165806  0.74779255  0.45295291     0.35200
C823        C  0.89531664  0.81057349  0.47675145    -0.26600
C824        C  0.87800946  0.80095716  0.00344542    -0.14600
C825        C  0.87921763  0.83668952  0.03319228     0.36000
C826        C  0.89481711  0.88341711  0.03065113    -0.26000
C827        C  0.90885746  0.89562524  0.99916822    -0.15200
C828        C  0.91144864  0.85652523  0.47586629     0.37100
N829        N  0.92756067  0.86600295  0.44422881    -0.89500
H830        H  0.89590972  0.78372388  0.45378422     0.18200
H831        H  0.89575402  0.91105489  0.05319055     0.18200
N832        N  0.86423417  0.82643092  0.06555782    -0.88500
H833        H  0.94293463  0.83621878  0.44217477     0.35600
H834        H  0.93827967  0.90187954  0.44579979     0.40700
H835        H  0.84267167  0.82957368  0.05975213     0.40300
H836        H  0.86852969  0.85548875  0.08513382     0.35200
C837        C  0.83233561  0.67054700  0.09806068    -0.26600
C838        C  0.81762079  0.67441848  0.06545723    -0.14600
C839        C  0.78867800  0.66194105  0.06383463     0.36000
C840        C  0.77535183  0.64401523  0.09435336    -0.26000
C841        C  0.78993271  0.63882832  0.12699207    -0.15200
C842        C  0.81885938  0.65231937  0.12890207     0.37100
N843        N  0.83455513  0.64668238  0.16168367    -0.89500
H844        H  0.85453646  0.68044330  0.09919415     0.18200
H845        H  0.75309484  0.63481580  0.09255499     0.18200
N846        N  0.77266539  0.66858547  0.03132430    -0.88500
H847        H  0.85537740  0.65904955  0.15857201     0.35600
H848        H  0.83553741  0.60630548  0.16719755     0.40700
H849        H  0.77215264  0.70902110  0.02591409     0.40300
H850        H  0.75171106  0.65707138  0.03455066     0.35200
C851        C  0.82376812  0.70090048  0.40634791    -0.26600
C852        C  0.82637962  0.66572090  0.43486016    -0.14600
C853        C  0.81558021  0.61392126  0.43078119     0.36000
C854        C  0.79987887  0.60046792  0.40005571    -0.26000
C855        C  0.79569625  0.63679356  0.37268929    -0.15200
C856        C  0.80859422  0.68683505  0.37514763     0.37100
N857        N  0.80523704  0.72390273  0.34674516    -0.89500
H858        H  0.83226853  0.74046670  0.40909471     0.18200
H859        H  0.79067268  0.56142528  0.39748069     0.18200
N860        N  0.82037708  0.57531180  0.45793155    -0.88500
H861        H  0.81623181  0.75875776  0.35268583     0.35600
H862        H  0.78386746  0.73429653  0.34523351     0.40700
H863        H  0.84213150  0.56842110  0.45948055     0.40300
H864        H  0.81123322  0.53916474  0.45051554     0.35200
C865        C  0.86114593  0.75042107  0.50464140     0.80000
N866        N  0.85293887  0.72924477  0.97132080    -0.78300
C867        C  0.83552821  0.68686368  0.97007781     0.82400
N868        N  0.82516560  0.66856374  0.00102065    -0.79600
C869        C  0.83402601  0.68579721  0.53274177     0.82500
N870        N  0.85109002  0.72861630  0.53489098    -0.80000
C871        C  0.62182724  0.85522356  0.50388163     0.80000
N872        N  0.63661765  0.83837413  0.97036723    -0.78300
C873        C  0.65718910  0.80082659  0.96951537     0.82400
N874        N  0.66640331  0.77984075  0.00071929    -0.78300
C875        C  0.65290128  0.79769570  0.53436396     0.82500
N876        N  0.63153225  0.83411628  0.53490850    -0.80000
C877        C  0.80233794  0.26233108  0.49515256     0.80000
N878        N  0.79016704  0.28499372  0.96756948    -0.78300
C879        C  0.77170942  0.32624229  0.96908504     0.82400
N880        N  0.76336976  0.34538137  0.00141580    -0.78300
C881        C  0.77770212  0.32549808  0.53036484     0.82500
N882        N  0.79496779  0.28258627  0.52783006    -0.80000
N883        N  0.97358050  0.98091062  0.50450272    -0.36800
N884        N  0.50330294  0.08002715  0.49674864    -0.57400
N885        N  0.95150554  0.13695042  0.49584095    -0.36800
N886        N  0.92045115  0.03858346  0.50062905    -0.57400
C887        C  0.99959924  0.96407995  0.51416929     0.26700
C888        C  0.95521115  0.94282385  0.51335651     0.26700
C889        C  0.96926595  0.17689215  0.50455309     0.26700
C890        C  0.92497989  0.15485394  0.50179216     0.26700
C891        C  0.52471985  0.04493295  0.49259972     0.35400
C892        C  0.51382790  0.12791934  0.48919315     0.35400
C893        C  0.91093875  0.98881788  0.49562508     0.35400
C894        C  0.89930912  0.07102201  0.49035825     0.35400
C895        C  0.99781748  0.91451105  0.52918809    -0.22100
C896        C  0.96971195  0.90114478  0.52879228    -0.22100
C897        C  0.95383582  0.22087354  0.51592597    -0.22100
C898        C  0.92584624  0.20687808  0.51431277    -0.22100
C899        C  0.54906379  0.07063330  0.48273243    -0.23200
C900        C  0.54217281  0.12339312  0.48068781    -0.23200
C901        C  0.88350828  0.98956205  0.48242467    -0.23200
C902        C  0.87612369  0.04187735  0.47904017    -0.23200
C903        C  0.52287310  0.99055756  0.49980908    -0.18500
C904        C  0.92611051  0.94300669  0.50509799    -0.18500
C905        C  0.90002418  0.12650143  0.49397520    -0.18500
C906        C  0.49880115  0.17610450  0.49288704    -0.18500
H907        H  0.51167390  0.89109667  0.53194578     0.14400
H908        H  0.96100271  0.86451915  0.53816199     0.14400
H909        H  0.96186496  0.25918958  0.52429565     0.14400
H910        H  0.90812670  0.23230566  0.52114358     0.14400
H911        H  0.56968293  0.05329574  0.47798727     0.12700
H912        H  0.55644933  0.15490349  0.47411343     0.12700
H913        H  0.87015766  0.95597994  0.47621722     0.12700
H914        H  0.85593169  0.05678140  0.46977702     0.12700
H915        H  0.96892589  0.01464132  0.49018248     0.25900
H916        H  0.95703632  0.10070752  0.48420606     0.25900
C917        C  0.56630995  0.36574602  0.49452196     0.80000
N918        N  0.57525118  0.38553281  0.52669973    -0.78300
C919        C  0.59325722  0.42678289  0.52882644     0.82400
N920        N  0.60190572  0.44961775  0.99972834    -0.78300
C921        C  0.59422488  0.42905826  0.96731193     0.82500
N922        N  0.57652930  0.38688660  0.96591521    -0.80000
O923        O  0.78437015  0.62744987  0.81057445    -0.75500
O924        O  0.75339297  0.59431979  0.85056939    -0.54400
C925        C  0.77641804  0.61767756  0.84260728     0.78200
O926        O  0.67729605  0.69137841  0.68966443    -0.60100
O927        O  0.69515476  0.63103526  0.64947136    -0.53200
C928        C  0.68276760  0.67499407  0.65767728     0.70200
O929        O  0.67988353  0.69748664  0.80979442    -0.74700
O930        O  0.69761368  0.63889395  0.84990815    -0.55200
C931        C  0.68598425  0.68316720  0.84176575     0.76200
O932        O  0.78408488  0.62358284  0.68928712    -0.59800
O933        O  0.75159059  0.59103661  0.64973238    -0.52900
C934        C  0.77496317  0.61411414  0.65723936     0.72800
Zr935      Zr  0.76721014  0.60754538  0.74992485     2.54700
O936        O  0.78539202  0.69743625  0.74980567    -0.80400
O937        O  0.81463613  0.56988498  0.75068763    -0.93800
Zr938      Zr  0.68702212  0.66051217  0.74981624     2.64700
O939        O  0.70575007  0.75006586  0.75041847    -0.98800
O940        O  0.63819304  0.69118977  0.75012341    -0.80800
O941        O  0.72754513  0.63654734  0.78372421    -0.84200
O942        O  0.72720018  0.63456270  0.71614670    -2.18900
O943        O  0.75197837  0.42706334  0.68960033    -0.67600
O944        O  0.73353795  0.48532715  0.64979731    -0.52100
C945        C  0.74742422  0.44328879  0.65759384     0.71200
O946        O  0.64469106  0.48951188  0.80989517    -0.60500
O947        O  0.67493030  0.52819863  0.85018398    -0.52500
C948        C  0.65283622  0.50121261  0.84208715     0.73000
O949        O  0.64220267  0.49450333  0.68784553    -0.71900
O950        O  0.67462144  0.52355199  0.64821936    -0.50600
C951        C  0.65091547  0.50277246  0.65586358     0.74400
O952        O  0.74604915  0.42553249  0.81090993    -0.67200
O953        O  0.73007065  0.48861526  0.85023322    -0.54400
C954        C  0.74116724  0.44328768  0.84284725     0.72800
Zr955      Zr  0.73914428  0.45774135  0.74997686     2.77500
O956        O  0.71761017  0.37066789  0.74600789    -0.98000
O957        O  0.78574385  0.41727873  0.75503506    -0.78800
Zr958      Zr  0.65946031  0.51103201  0.74919206     2.70100
O959        O  0.64085143  0.42152725  0.74587438    -0.80000
O960        O  0.61200860  0.54854889  0.75145654    -0.99100
Zr961      Zr  0.71353567  0.56200213  0.81630721     2.21500
Zr962      Zr  0.71314266  0.55770033  0.68340086     2.11100
O963        O  0.69908915  0.48213343  0.71538566    -2.47800
O964        O  0.69929324  0.48505309  0.78366056    -0.79800
O965        O  0.75383288  0.53116246  0.71606734    -0.72000
O966        O  0.67256004  0.58732172  0.78369477    -2.33000
O967        O  0.75399838  0.53334291  0.78382776    -2.29200
O968        O  0.67250186  0.58533021  0.71539527    -0.73800
H969        H  0.73234287  0.66271395  0.70045765     0.78200
H970        H  0.65747234  0.59786037  0.79958882     0.79300
H971        H  0.69395130  0.45327602  0.69932614     0.81500
H972        H  0.76924878  0.52347122  0.79970424     0.79100
H973        H  0.63918272  0.72904193  0.74395075     0.42200
H974        H  0.61029376  0.56399468  0.77589873     0.41100
H975        H  0.65455401  0.40011270  0.75963103     0.40800
H976        H  0.73299682  0.34592772  0.75264649     0.38800
H977        H  0.79897287  0.44617276  0.74977169     0.41900
H978        H  0.82721327  0.60084327  0.74909924     0.36700
H979        H  0.77381736  0.71580949  0.73164599     0.42800
H980        H  0.71290331  0.75526080  0.72595745     0.39200
H981        H  0.70453548  0.37010671  0.76649430     0.44100
H982        H  0.81650797  0.55124375  0.72726299     0.42900
H983        H  0.68892250  0.77340884  0.75218361     0.43000
H984        H  0.61271622  0.57956524  0.73574792     0.43300
C985        C  0.61481115  0.49899286  0.56522429    -0.26600
C986        C  0.60438957  0.44707398  0.56369946    -0.14600
C987        C  0.60673327  0.41570168  0.59469491     0.36000
C988        C  0.62110561  0.43548032  0.62493019    -0.26000
C989        C  0.63295845  0.48612151  0.62534281    -0.15200
C990        C  0.62883161  0.51883057  0.59550195     0.37100
N991        N  0.63801139  0.57276922  0.59538918    -0.89500
H992        H  0.61241991  0.52448423  0.54243215     0.18200
H993        H  0.62385977  0.41033213  0.64785433     0.18200
N994        N  0.59555469  0.36333645  0.59626923    -0.88500
H995        H  0.66000899  0.57383049  0.59665440     0.35600
H996        H  0.62975861  0.59257631  0.61783811     0.40700
H997        H  0.60448334  0.33990064  0.57590769     0.40300
H998        H  0.57367481  0.36544478  0.59281471     0.35200
C999        C  0.60784812  0.41765714  0.90296611    -0.26600
C1000       C  0.60694788  0.44989613  0.93412815    -0.14600
C1001       C  0.61973420  0.50039549  0.93367724     0.36000
C1002       C  0.63423778  0.51591084  0.90315230    -0.26000
C1003       C  0.63579215  0.48316058  0.87248185    -0.15200
C1004       C  0.62222620  0.43360835  0.87221841     0.37100
N1005       N  0.62392902  0.39886904  0.84134823    -0.89500
H1006       H  0.59820553  0.37895039  0.90294294     0.18200
H1007       H  0.64431211  0.55428687  0.90323543     0.18200
N1008       N  0.61791992  0.53609569  0.96405094    -0.88500
H1009       H  0.61270043  0.36409180  0.84545842     0.35600
H1010       H  0.64507561  0.38768060  0.83828710     0.40700
H1011       H  0.59671153  0.54691511  0.96696787     0.40300
H1012       H  0.62893518  0.57100104  0.95955250     0.35200
C1013       C  0.51878656  0.25143741  0.96566783    -0.26600
C1014       C  0.51513051  0.22573480  0.49420696    -0.14600
C1015       C  0.02343065  0.25213187  0.53192582     0.36000
C1016       C  0.54686668  0.28708721  0.52415630    -0.26000
C1017       C  0.54806821  0.31822205  0.49345591    -0.15200
C1018       C  0.53484515  0.29795073  0.96412487     0.37100
N1019       N  0.53730471  0.32463627  0.93074127    -0.89500
H1020       H  0.50883596  0.23556099  0.94158296     0.18200
H1021       H  0.55897951  0.29772578  0.54784782     0.18200
N1022       N  0.01764249  0.23211258  0.56683102    -0.88500
H1023       H  0.52373535  0.30793439  0.91148502     0.35600
H1024       H  0.55771996  0.31749872  0.92136097     0.40700
H1025       H  0.00634760  0.19684871  0.56548520     0.40300
H1026       H  0.00481250  0.25991593  0.58009588     0.35200
C1027       C  0.84107381  0.22330803  0.96595107    -0.26600
C1028       C  0.82443507  0.22078782  0.49248356    -0.14600
C1029       C  0.82949811  0.18521320  0.52051921     0.36000
C1030       C  0.85399394  0.15367710  0.51996813    -0.26000
C1031       C  0.87311416  0.15642314  0.49173131    -0.15200
C1032       C  0.86608691  0.19341580  0.96493850     0.37100
N1033       N  0.88387972  0.19400370  0.93398742    -0.89500
H1034       H  0.83579933  0.24781215  0.94339775     0.18200
H1035       H  0.85860039  0.12769961  0.54199882     0.18200
N1036       N  0.80998506  0.18171264  0.54958058    -0.88500
H1037       H  0.87472259  0.21693635  0.91396840     0.35600
H1038       H  0.90266455  0.21282109  0.94137324     0.40700
H1039       H  0.81692472  0.15377439  0.56799014     0.40300
H1040       H  0.79089541  0.16776727  0.53895516     0.35200
C1041       C  0.77478342  0.40834260  0.56561405    -0.26600
C1042       C  0.77275070  0.35306280  0.56486543    -0.14600
C1043       C  0.76510830  0.32653224  0.59608006     0.36000
C1044       C  0.75838924  0.35649443  0.62714701    -0.26000
C1045       C  0.75874513  0.41215210  0.62699759    -0.15200
C1046       C  0.76790688  0.43818800  0.59615971     0.37100
N1047       N  0.76987846  0.49499403  0.59579802    -0.89500
H1048       H  0.78155559  0.42857832  0.54197405     0.18200
H1049       H  0.75146640  0.33655432  0.65085499     0.18200
N1050       N  0.76308715  0.26980296  0.59568722    -0.88500
H1051       H  0.77637796  0.50786432  0.57080158     0.35600
H1052       H  0.78559487  0.50619442  0.61416734     0.40700
H1053       H  0.74693146  0.25918977  0.57777823     0.40300
H1054       H  0.75705622  0.25657485  0.62077873     0.35200
C1055       C  0.75403124  0.43799757  0.90673916    -0.26600
C1056       C  0.74932244  0.41105461  0.87404771    -0.14600
C1057       C  0.75222807  0.35529860  0.87247758     0.36000
C1058       C  0.76002139  0.32813475  0.90368671    -0.26000
C1059       C  0.76411943  0.35546347  0.93643264    -0.15200
C1060       C  0.76145954  0.41119571  0.93769847     0.37100
N1061       N  0.76707939  0.44084667  0.97020040    -0.89500
H1062       H  0.75239105  0.48078295  0.90820303     0.18200
H1063       H  0.76222306  0.28541415  0.90267848     0.18200
N1064       N  0.74668390  0.32640206  0.83968255    -0.88500
H1065       H  0.76325347  0.48125860  0.96686093     0.35600
H1066       H  0.78860561  0.43677520  0.97597653     0.40700
H1067       H  0.72524663  0.33115573  0.83359896     0.40300
H1068       H  0.75006297  0.28586903  0.84308630     0.35200
C1069       C  0.56719380  0.96053638  0.52951403    -0.26600
C1070       C  0.54897317  0.95779795  0.49976475    -0.14600
C1071       C  0.55880588  0.92345445  0.97077420     0.36000
C1072       C  0.58327582  0.89240750  0.97172044    -0.26000
C1073       C  0.59707381  0.89141935  0.50337981    -0.15200
C1074       C  0.59114467  0.92758894  0.53159926     0.37100
N1075       N  0.60956046  0.93168563  0.56207004    -0.89500
H1076       H  0.56259107  0.98799214  0.55138637     0.18200
H1077       H  0.58784761  0.86679611  0.94885481     0.18200
N1078       N  0.54132124  0.92020955  0.93917033    -0.88500
H1079       H  0.59775950  0.92422846  0.58488921     0.35600
H1080       H  0.61678795  0.97063883  0.56406945     0.40700
H1081       H  0.52418482  0.94630491  0.94039523     0.40300
H1082       H  0.53308636  0.88195198  0.93749400     0.35200
C1083       C  0.69519750  0.71710660  0.60138664    -0.26600
C1084       C  0.67517550  0.70964011  0.62796477    -0.14600
C1085       C  0.64846027  0.73414170  0.62523080     0.36000
C1086       C  0.64214965  0.76486865  0.59518498    -0.26000
C1087       C  0.66179834  0.77038360  0.56748828    -0.15200
C1088       C  0.68889645  0.74660290  0.57129998     0.37100
N1089       N  0.71059824  0.75103797  0.54520525    -0.89500
H1090       H  0.71593709  0.69898923  0.60373290     0.18200
H1091       H  0.62134684  0.78254972  0.59269290     0.18200
N1092       N  0.62758397  0.72618751  0.65222159    -0.88500
H1093       H  0.71314278  0.79089006  0.53908230     0.35600
H1094       H  0.70477242  0.72904894  0.52244672     0.40700
H1095       H  0.62241105  0.68601885  0.65160867     0.40300
H1096       H  0.60904025  0.74697538  0.64620908     0.35200
C1097       C  0.64711726  0.77532605  0.90600902    -0.26600
C1098       C  0.66648745  0.77789136  0.93473796    -0.14600
C1099       C  0.69354834  0.75506418  0.93051904     0.36000
C1100       C  0.69961204  0.72564968  0.89929387    -0.26000
C1101       C  0.67953408  0.71985891  0.87175934    -0.15200
C1102       C  0.65337448  0.74651027  0.87446634     0.37100
N1103       N  0.63285931  0.74236987  0.84599706    -0.89500
H1104       H  0.62645419  0.79350566  0.90882690     0.18200
H1105       H  0.72007562  0.70657782  0.89653112     0.18200
N1106       N  0.71474650  0.76171410  0.95789854    -0.88500
H1107       H  0.61482179  0.76471496  0.85218002     0.35600
H1108       H  0.62651087  0.70286730  0.84401802     0.40700
H1109       H  0.71935786  0.80206814  0.95995248     0.40300
H1110       H  0.73347855  0.74235148  0.95060249     0.35200
C1111       C  0.89279371  0.81316234  0.97221877    -0.26600
C1112       C  0.87852595  0.79901577  0.50634976    -0.14600
C1113       C  0.87809286  0.83480311  0.53605034     0.36000
C1114       C  0.89445379  0.88087181  0.53523831    -0.26000
C1115       C  0.91082169  0.89223592  0.50540712    -0.15200
C1116       C  0.90810593  0.85993002  0.96964084     0.37100
N1117       N  0.92202632  0.87015123  0.93647221    -0.89500
H1118       H  0.89228463  0.78639170  0.94920769     0.18200
H1119       H  0.89401962  0.90878219  0.55764303     0.18200
N1120       N  0.86059450  0.82530659  0.56644469    -0.88500
H1121       H  0.93786622  0.84149961  0.93307385     0.35600
H1122       H  0.93193998  0.90687698  0.93684688     0.40700
H1123       H  0.83957492  0.82823616  0.55793421     0.40300
H1124       H  0.86342507  0.85477776  0.58617269     0.35200
C1125       C  0.83387304  0.66418638  0.59758468    -0.26600
C1126       C  0.81947841  0.66694074  0.56469620    -0.14600
C1127       C  0.79078453  0.65270393  0.56254831     0.36000
C1128       C  0.77726593  0.63536647  0.59308643    -0.26000
C1129       C  0.79145187  0.63197112  0.62616016    -0.15200
C1130       C  0.82026257  0.64616040  0.62836422     0.37100
N1131       N  0.83568439  0.64171225  0.66144310    -0.89500
H1132       H  0.85591131  0.67520326  0.59906687     0.18200
H1133       H  0.75512454  0.62537003  0.59093974     0.18200
N1134       N  0.77513281  0.65728036  0.52956538    -0.88500
H1135       H  0.85644397  0.65453904  0.65851286     0.35600
H1136       H  0.83691694  0.60150275  0.66739164     0.40700
H1137       H  0.77391853  0.69747434  0.52355787     0.40300
H1138       H  0.75436782  0.64444891  0.53244463     0.35200
C1139       C  0.82355934  0.69820964  0.90552384    -0.26600
C1140       C  0.82457682  0.66541650  0.93545665    -0.14600
C1141       C  0.81244298  0.61449476  0.93288549     0.36000
C1142       C  0.79745593  0.59961129  0.90185724    -0.26000
C1143       C  0.79491651  0.63368263  0.87287260    -0.15200
C1144       C  0.80879270  0.68290410  0.87422664     0.37100
N1145       N  0.80680859  0.71810664  0.84458159    -0.89500
H1146       H  0.83300192  0.73710270  0.90714184     0.18200
H1147       H  0.78744090  0.56119258  0.90037197     0.18200
N1148       N  0.81509394  0.57821453  0.96187699    -0.88500
H1149       H  0.81838862  0.75250693  0.84981432     0.35600
H1150       H  0.78569765  0.72988268  0.84204122     0.40700
H1151       H  0.83651984  0.56898959  0.96484434     0.40300
H1152       H  0.80487438  0.54263082  0.95566207     0.35200
loop_ 
_geom_bond_atom_site_label_1 
_geom_bond_atom_site_label_2 
_geom_bond_distance 
_geom_bond_site_symmetry_2 
_ccdc_geom_bond_type 
C1            N6   1.360       .  A
C1          N290   1.360   1_554  A
C1          C248   1.485       .  S
N2            C3   1.354       .  A
N2          C289   1.360       .  A
C3            N4   1.352       .  A
C3          C276   1.484       .  S
N4          C293   1.355       .  A
C5            N6   1.358       .  A
C5          N292   1.353       .  A
C5          C262   1.475       .  S
C7           N12   1.360       .  A
C7          N296   1.356   1_554  A
C7          C209   1.478       .  S
N8            C9   1.357       .  A
N8          C295   1.360       .  A
C9           N10   1.356       .  A
C9          C234   1.480       .  S
N10         C299   1.356       .  A
C11          N12   1.361       .  A
C11         N298   1.357       .  A
C11         C223   1.486       .  S
C13          N18   1.362   1_556  A
C13         N302   1.363       .  A
C13         C164   1.486       .  S
N14          C15   1.355       .  A
N14         C301   1.362       .  A
C15          N16   1.353       .  A
C15         C195   1.475       .  S
N16         C305   1.354       .  A
C17          N18   1.356       .  A
C17         N304   1.353   1_554  A
C17         C178   1.477       .  S
N19          C24   1.350       .  A
N19          C23   1.351       .  A
N19          H51   1.035   1_564  S
N20          C27   1.349       .  A
N20          C28   1.348       .  A
N21          C26   1.352   1_556  A
N21          C25   1.352   1_556  A
N21          H52   1.039       .  S
N22          C29   1.348   1_545  A
N22          C30   1.349       .  A
C23          C31   1.387       .  A
C23         C615   1.412       .  A
C24          C40   1.412       .  A
C24          C32   1.387       .  A
C25          C33   1.386       .  A
C25         C618   1.411   1_554  A
C26          C41   1.412   1_554  A
C26          C34   1.386       .  A
C27          C39   1.408   1_545  A
C27          C35   1.386       .  A
C28          C42   1.409   1_455  A
C28          C36   1.387       .  A
C29          C37   1.387       .  A
C29          C40   1.410   1_556  A
C30          C38   1.385       .  A
C30          C41   1.407       .  A
C31          C32   1.374       .  A
C31         H619   1.082       .  S
C32          H44   1.082       .  S
C33          C34   1.375       .  A
C33          H45   1.082       .  S
C34          H46   1.082       .  S
C35          C36   1.371       .  A
C35          H47   1.082       .  S
C36          H48   1.082       .  S
C37          C38   1.373   1_565  A
C37          H49   1.082       .  S
C38          H50   1.082       .  S
C39         C206   1.479       .  S
C39         C599   1.411   1_456  A
C40         C251   1.477       .  S
C41         C167   1.482       .  S
C42         C150   1.477   1_655  S
C42         C601   1.412       .  A
H43         C607   1.082   1_455  S
C53          N54   1.358   1_556  A
C53         N346   1.361       .  A
C53         C153   1.483       .  S
N54          C55   1.351       .  A
C55         N344   1.355   1_554  A
C55         C122   1.485       .  S
N56          C57   1.355       .  A
N56         C343   1.355       .  A
C57          N58   1.361       .  A
C57         C136   1.490       .  S
N58         C341   1.363       .  A
O59         Zr71   2.447       .  S
O59          C61   1.288       .  A
O60         Zr97   2.416       .  S
O60          C61   1.285       .  A
C61         C279   1.477       .  S
O62         Zr74   2.450       .  S
O62          C64   1.288       .  A
O63         Zr98   2.403       .  S
O63          C64   1.283       .  A
C64         C220   1.471       .  S
O65         Zr74   2.449       .  S
O65          C67   1.288       .  A
O66         Zr97   2.404       .  S
O66          C67   1.283       .  A
C67         C237   1.472       .  S
O68         Zr71   2.455       .  S
O68          C70   1.289       .  A
O69         Zr98   2.388       .  S
O69          C70   1.281       .  A
C70         C265   1.488       .  S
Zr71         O72   2.434       .  S
Zr71         O73   2.435       .  S
Zr71         O77   2.378       .  S
Zr71         O78   2.371       .  S
Zr71        O101   2.372       .  S
Zr71        O103   2.377       .  S
O72         H115   0.990       .  S
O73         H114   0.990       .  S
O73         H118   0.990       .  S
Zr74         O75   2.436       .  S
Zr74         O76   2.436       .  S
Zr74         O78   2.373       .  S
Zr74         O77   2.377       .  S
Zr74        O102   2.374       .  S
Zr74        O104   2.374       .  S
O75         H116   0.990       .  S
O75         H119   0.990       .  S
O76         H109   0.990       .  S
O77         Zr97   2.372       .  S
O78         Zr98   2.370       .  S
O78         H105   0.966       .  S
O79         Zr91   2.454       .  S
O79          C81   1.290       .  A
O80         Zr98   2.397       .  S
O80          C81   1.282       .  A
C81         C181   1.483       .  S
O82         Zr94   2.447       .  S
O82          C84   1.289       .  A
O83         Zr97   2.416       .  S
O83          C84   1.286       .  A
C84         C139   1.482       .  S
O85         Zr94   2.457       .  S
O85          C87   1.290       .  A
O86         Zr98   2.385       .  S
O86          C87   1.278       .  A
C87         C125   1.472       .  S
O88         Zr91   2.450       .  S
O88          C90   1.289       .  A
O89         Zr97   2.395       .  S
O89          C90   1.283       .  A
C90         C192   1.478       .  S
Zr91         O92   2.435       .  S
Zr91         O93   2.435       .  S
Zr91         O99   2.371       .  S
Zr91        O100   2.374       .  S
Zr91        O103   2.377       .  S
Zr91        O101   2.377       .  S
O92         H112   0.990       .  S
O92         H117   0.990       .  S
O93         H113   0.990       .  S
Zr94         O95   2.434       .  S
Zr94         O96   2.434       .  S
Zr94        O100   2.375       .  S
Zr94         O99   2.373       .  S
Zr94        O104   2.373       .  S
Zr94        O102   2.379       .  S
O95         H111   0.990       .  S
O96         H110   0.990       .  S
O96         H120   0.990       .  S
Zr97        O100   2.372       .  S
Zr97        O102   2.379       .  S
Zr97        O103   2.378       .  S
Zr98         O99   2.370       .  S
Zr98        O101   2.366       .  S
Zr98        O104   2.369       .  S
O99         H107   0.966       .  S
O102        H106   0.966       .  S
O103        H108   0.966       .  S
C121        C122   1.404       .  A
C121        C126   1.392       .  A
C121        H128   1.083       .  S
C122        C123   1.422       .  A
C123        C124   1.399       .  A
C123        N130   1.432       .  S
C124        C125   1.401       .  A
C124        H129   1.084       .  S
C125        C126   1.415       .  A
C126        N127   1.434       .  S
N127        H131   1.044       .  S
N127        H132   1.046       .  S
N130        H133   1.045       .  S
N130        H134   1.045       .  S
C135        C136   1.407       .  A
C135        C140   1.409       .  A
C135        H142   1.083       .  S
C136        C137   1.417       .  A
C137        C138   1.402       .  A
C137        N144   1.438       .  S
C138        C139   1.402       .  A
C138        H143   1.084       .  S
C139        C140   1.413       .  A
C140        N141   1.438       .  S
N141        H145   1.046       .  S
N141        H146   1.046       .  S
N144        H147   1.046       .  S
N144        H148   1.046       .  S
C149        C154   1.407       .  A
C149        C438   1.400       .  A
C149        H156   1.084       .  S
C150        C437   1.401       .  A
C150        C727   1.412   1_556  A
C151        C726   1.410   1_554  A
C151        C728   1.397       .  A
C151        N158   1.439       .  S
C152        C153   1.407   1_554  A
C152        C727   1.394       .  A
C152        H157   1.082       .  S
C153        C442   1.412       .  A
C154        C441   1.420       .  A
C154        N155   1.437       .  S
N155        H159   1.046       .  S
N155        H160   1.045       .  S
N158        H161   1.043       .  S
N158        H162   1.046       .  S
C163        C168   1.401       .  A
C163        C452   1.408       .  A
C163        H170   1.083       .  S
C164        C165   1.417   1_556  A
C164        C451   1.408       .  A
C165        C166   1.405       .  A
C165        N172   1.438       .  S
C166        C167   1.400   1_554  A
C166        H171   1.084       .  S
C167        C456   1.406       .  A
C168        C455   1.404       .  A
C168        N169   1.438       .  S
N169        H173   1.046       .  S
N169        H174   1.045       .  S
N172        H175   1.046       .  S
N172        H176   1.046       .  S
C177        C178   1.400       .  A
C177        C182   1.395       .  A
C177        H184   1.082       .  S
C178        C179   1.411       .  A
C179        C180   1.412       .  A
C179        N186   1.437       .  S
C180        C181   1.408       .  A
C180        H185   1.083       .  S
C181        C182   1.415       .  A
C182        N183   1.440       .  S
N183        H187   1.046       .  S
N183        H188   1.046       .  S
N186        H189   1.046       .  S
N186        H190   1.046       .  S
C191        C192   1.402       .  A
C191        C196   1.395       .  A
C191        H198   1.084       .  S
C192        C193   1.414       .  A
C193        C194   1.410       .  A
C193        N200   1.437       .  S
C194        C195   1.404       .  A
C194        H199   1.084       .  S
C195        C196   1.411       .  A
C196        N197   1.438       .  S
N197        H201   1.045       .  S
N197        H202   1.046       .  S
N200        H203   1.046       .  S
N200        H204   1.046       .  S
C205        C206   1.402   1_554  A
C205        C210   1.402       .  A
C205        H212   1.084       .  S
C206        C495   1.413       .  A
C207        C208   1.398       .  A
C207        C494   1.414       .  A
C207        N214   1.439       .  S
C208        C497   1.406       .  A
C208        H213   1.084       .  S
C209        C210   1.410       .  A
C209        C496   1.405   1_554  A
C210        N211   1.432       .  S
N211        H215   1.046       .  S
N211        H216   1.046       .  S
N214        H217   1.043       .  S
N214        H218   1.046       .  S
C219        C220   1.399       .  A
C219        C224   1.393       .  A
C219        H226   1.085       .  S
C220        C221   1.408       .  A
C221        C222   1.407       .  A
C221        N228   1.437       .  S
C222        C223   1.409       .  A
C222        H227   1.083       .  S
C223        C224   1.419       .  A
C224        N225   1.431       .  S
N225        H229   1.046       .  S
N225        H230   1.043       .  S
N228        H231   1.046       .  S
N228        H232   1.046       .  S
C233        C234   1.406       .  A
C233        C238   1.406       .  A
C233        H240   1.083       .  S
C234        C235   1.412       .  A
C235        C236   1.402       .  A
C235        N242   1.437       .  S
C236        C237   1.402       .  A
C236        H241   1.084       .  S
C237        C238   1.409       .  A
C238        N239   1.438       .  S
N239        H243   1.046       .  S
N239        H244   1.046       .  S
N242        H245   1.045       .  S
N242        H246   1.046       .  S
C247        C252   1.394       .  A
C247        C536   1.405       .  A
C247        H254   1.084       .  S
C248        C249   1.418       .  A
C248        C535   1.407   1_554  A
C249        C250   1.404       .  A
C249        N256   1.438       .  S
C250        C251   1.400       .  A
C250        H255   1.084       .  S
C251        C540   1.411   1_554  A
C252        C539   1.411       .  A
C252        N253   1.439       .  S
N253        H257   1.045       .  S
N253        H258   1.043       .  S
N256        H259   1.046       .  S
N256        H260   1.046       .  S
C261        C262   1.403       .  A
C261        C266   1.409       .  A
C261        H268   1.084       .  S
C262        C263   1.411       .  A
C263        C264   1.395       .  A
C263        N270   1.440       .  S
C264        C265   1.408       .  A
C264        H269   1.083       .  S
C265        C266   1.416       .  A
C266        N267   1.437       .  S
N267        H271   1.046       .  S
N267        H272   1.046       .  S
N270        H273   1.046       .  S
N270        H274   1.046       .  S
C275        C276   1.407       .  A
C275        C280   1.407       .  A
C275        H282   1.083       .  S
C276        C277   1.413       .  A
C277        C278   1.402       .  A
C277        N284   1.438       .  S
C278        C279   1.402       .  A
C278        H283   1.084       .  S
C279        C280   1.411       .  A
C280        N281   1.438       .  S
N281        H285   1.046       .  S
N281        H286   1.046       .  S
N284        H287   1.046       .  S
N284        H288   1.045       .  S
C289        N294   1.361       .  A
C289        C536   1.478       .  S
N290        C291   1.354       .  A
C291        N292   1.352   1_556  A
C291        C564   1.477       .  S
C293        N294   1.357       .  A
C293        C550   1.477       .  S
C295        N300   1.358       .  A
C295        C497   1.486       .  S
N296        C297   1.353       .  A
C297        N298   1.356   1_556  A
C297        C522   1.478       .  S
C299        N300   1.359       .  A
C299        C511   1.484       .  S
C301        N306   1.361       .  A
C301        C452   1.481       .  S
N302        C303   1.356       .  A
C303        N304   1.353       .  A
C303        C483   1.479       .  S
C305        N306   1.354       .  A
C305        C466   1.473       .  S
N307        C312   1.350       .  A
N307        C311   1.350       .  A
N307        H339   1.038   1_565  S
N308        C315   1.351       .  A
N308        C316   1.350       .  A
N309        C314   1.351       .  A
N309        C313   1.350       .  A
N309        H340   1.038       .  S
N310        C317   1.347   1_545  A
N310        C318   1.347       .  A
C311        C319   1.386       .  A
C311        C903   1.410       .  A
C312        C328   1.409       .  A
C312        C320   1.386       .  A
C313        C321   1.387       .  A
C313        C906   1.411       .  A
C314        C329   1.411       .  A
C314        C322   1.387       .  A
C315        C327   1.411   1_545  A
C315        C323   1.386       .  A
C316        C330   1.412   1_455  A
C316        C324   1.387       .  A
C317        C325   1.386       .  A
C317        C328   1.406       .  A
C318        C326   1.386       .  A
C318        C329   1.405       .  A
C319        C320   1.375       .  A
C319        H907   1.082       .  S
C320        H332   1.082       .  S
C321        C322   1.375       .  A
C321        H333   1.082       .  S
C322        H334   1.082       .  S
C323        C324   1.374       .  A
C323        H335   1.082       .  S
C324        H336   1.082       .  S
C325        C326   1.372   1_565  A
C325        H337   1.082       .  S
C326        H338   1.082       .  S
C327        C494   1.482       .  S
C327        C887   1.411   1_455  A
C328        C539   1.474       .  S
C329        C455   1.476       .  S
C330        C438   1.484   1_655  S
C330        C889   1.412       .  A
H331        C895   1.082   1_455  S
C341        N342   1.362       .  A
C341        C441   1.497       .  S
N342        C343   1.355       .  A
C343        C410   1.492       .  S
N344        C345   1.356       .  A
C345        N346   1.360       .  A
C345        C424   1.487       .  S
O347       Zr359   2.447       .  S
O347        C349   1.287       .  A
O348       Zr385   2.409       .  S
O348        C349   1.284       .  A
C349        C567   1.472       .  S
O350       Zr362   2.442       .  S
O350        C352   1.287       .  A
O351       Zr386   2.402       .  S
O351        C352   1.282       .  A
C352        C508   1.469       .  S
O353       Zr362   2.437       .  S
O353        C355   1.287       .  A
O354       Zr385   2.411       .  S
O354        C355   1.285       .  A
C355        C525   1.470       .  S
O356       Zr359   2.453       .  S
O356        C358   1.289       .  A
O357       Zr386   2.385       .  S
O357        C358   1.281       .  A
C358        C553   1.486       .  S
Zr359       O360   2.435       .  S
Zr359       O361   2.435       .  S
Zr359       O365   2.374       .  S
Zr359       O366   2.371       .  S
Zr359       O391   2.373       .  S
Zr359       O389   2.281       .  S
O360        H403   0.990       .  S
O361        H402   0.990       .  S
O361        H406   0.991       .  S
Zr362       O363   2.437       .  S
Zr362       O364   2.436       .  S
Zr362       O366   2.372       .  S
Zr362       O365   2.378       .  S
Zr362       O390   2.376       .  S
Zr362       O392   2.375       .  S
O363        H404   0.990       .  S
O363        H407   0.990       .  S
O364        H397   0.990       .  S
O365       Zr385   2.375       .  S
O366       Zr386   2.374       .  S
O366        H393   0.966       .  S
O367       Zr379   2.449       .  S
O367        C369   1.288       .  A
O368       Zr386   2.392       .  S
O368        C369   1.281       .  A
C369        C469   1.478       .  S
O370       Zr382   2.444       .  S
O370        C372   1.288       .  A
O371       Zr385   2.413       .  S
O371        C372   1.286       .  A
C372        C427   1.479       .  S
O373       Zr382   2.448       .  S
O373        C375   1.288       .  A
O374       Zr386   2.405       .  S
O374        C375   1.281       .  A
C375        C413   1.480       .  S
O376       Zr379   2.448       .  S
O376        C378   1.287       .  A
O377       Zr385   2.399       .  S
O377        C378   1.284       .  A
C378        C480   1.483       .  S
Zr379       O380   2.433       .  S
Zr379       O381   2.436       .  S
Zr379       O387   2.372       .  S
Zr379       O388   2.374       .  S
Zr379       O391   2.376       .  S
Zr379       O389   2.281       .  S
O380        H400   0.990       .  S
O380        H405   0.990       .  S
O381        H401   0.990       .  S
Zr382       O383   2.434       .  S
Zr382       O384   2.436       .  S
Zr382       O388   2.378       .  S
Zr382       O387   2.376       .  S
Zr382       O392   2.374       .  S
Zr382       O390   2.377       .  S
O383        H399   0.990       .  S
O384        H398   0.990       .  S
O384        H408   0.990       .  S
Zr385       O388   2.375       .  S
Zr385       O390   2.377       .  S
Zr385       O391   2.385       .  S
Zr386       O387   2.371       .  S
Zr386       O392   2.365       .  S
Zr386       O389   2.268       .  S
O387        H395   0.966       .  S
O390        H394   0.966       .  S
O391        H396   0.966       .  S
C409        C410   1.407       .  A
C409        C414   1.395       .  A
C409        H416   1.083       .  S
C410        C411   1.422       .  A
C411        C412   1.401       .  A
C411        N418   1.431       .  S
C412        C413   1.403       .  A
C412        H417   1.084       .  S
C413        C414   1.415       .  A
C414        N415   1.434       .  S
N415        H419   1.044       .  S
N415        H420   1.046       .  S
N418        H421   1.045       .  S
N418        H422   1.045       .  S
C423        C424   1.407       .  A
C423        C428   1.408       .  A
C423        H430   1.083       .  S
C424        C425   1.416       .  A
C425        C426   1.400       .  A
C425        N432   1.438       .  S
C426        C427   1.401       .  A
C426        H431   1.084       .  S
C427        C428   1.412       .  A
C428        N429   1.438       .  S
N429        H433   1.046       .  S
N429        H434   1.046       .  S
N432        H435   1.046       .  S
N432        H436   1.046       .  S
C437        C442   1.402       .  A
C437        H444   1.084       .  S
C438       C1015   1.411       .  A
C439       C1014   1.412       .  A
C439       C1016   1.395       .  A
C439        N446   1.440       .  S
C440       C1015   1.398       .  A
C440        C441   1.411       .  A
C440        H445   1.081       .  S
C442        N443   1.432       .  S
N443        H447   1.046       .  S
N443        H448   1.046       .  S
N446        H449   1.043       .  S
N446        H450   1.046       .  S
C451        C456   1.402       .  A
C451        H458   1.083       .  S
C452        C453   1.416       .  A
C453        C454   1.402       .  A
C453        N460   1.438       .  S
C454        C455   1.399       .  A
C454        H459   1.084       .  S
C456        N457   1.438       .  S
N457        H461   1.046       .  S
N457        H462   1.045       .  S
N460        H463   1.046       .  S
N460        H464   1.046       .  S
C465        C466   1.400       .  A
C465        C470   1.393       .  A
C465        H472   1.082       .  S
C466        C467   1.411       .  A
C467        C468   1.410       .  A
C467        N474   1.437       .  S
C468        C469   1.407       .  A
C468        H473   1.083       .  S
C469        C470   1.413       .  A
C470        N471   1.440       .  S
N471        H475   1.046       .  S
N471        H476   1.046       .  S
N474        H477   1.045       .  S
N474        H478   1.046       .  S
C479        C480   1.403       .  A
C479        C484   1.394       .  A
C479        H486   1.083       .  S
C480        C481   1.416       .  A
C481        C482   1.412       .  A
C481        N488   1.437       .  S
C482        C483   1.405       .  A
C482        H487   1.084       .  S
C483        C484   1.412       .  A
C484        N485   1.438       .  S
N485        H489   1.046       .  S
N485        H490   1.046       .  S
N488        H491   1.046       .  S
N488        H492   1.046       .  S
C493        C494   1.401       .  A
C493        C498   1.403       .  A
C493        H500   1.084       .  S
C495        C496   1.395       .  A
C495        N502   1.439       .  S
C496        H501   1.084       .  S
C497        C498   1.414       .  A
C498        N499   1.432       .  S
N499        H503   1.046       .  S
N499        H504   1.046       .  S
N502        H505   1.043       .  S
N502        H506   1.046       .  S
C507        C508   1.400       .  A
C507        C512   1.394       .  A
C507        H514   1.085       .  S
C508        C509   1.407       .  A
C509        C510   1.405       .  A
C509        N516   1.438       .  S
C510        C511   1.408       .  A
C510        H515   1.083       .  S
C511        C512   1.419       .  A
C512        N513   1.431       .  S
N513        H517   1.045       .  S
N513        H518   1.043       .  S
N516        H519   1.046       .  S
N516        H520   1.046       .  S
C521        C522   1.407       .  A
C521        C526   1.404       .  A
C521        H528   1.083       .  S
C522        C523   1.411       .  A
C523        C524   1.400       .  A
C523        N530   1.436       .  S
C524        C525   1.401       .  A
C524        H529   1.084       .  S
C525        C526   1.409       .  A
C526        N527   1.438       .  S
N527        H531   1.046       .  S
N527        H532   1.046       .  S
N530        H533   1.046       .  S
N530        H534   1.046       .  S
C535        C540   1.395       .  A
C535        H542   1.084       .  S
C536        C537   1.415       .  A
C537        C538   1.403       .  A
C537        N544   1.438       .  S
C538        C539   1.400       .  A
C538        H543   1.084       .  S
C540        N541   1.439       .  S
N541        H545   1.045       .  S
N541        H546   1.043       .  S
N544        H547   1.046       .  S
N544        H548   1.046       .  S
C549        C550   1.406       .  A
C549        C554   1.412       .  A
C549        H556   1.084       .  S
C550        C551   1.411       .  A
C551        C552   1.391       .  A
C551        N558   1.440       .  S
C552        C553   1.406       .  A
C552        H557   1.083       .  S
C553        C554   1.416       .  A
C554        N555   1.437       .  S
N555        H559   1.046       .  S
N555        H560   1.046       .  S
N558        H561   1.046       .  S
N558        H562   1.046       .  S
C563        C564   1.405       .  A
C563        C568   1.405       .  A
C563        H570   1.083       .  S
C564        C565   1.412       .  A
C565        C566   1.401       .  A
C565        N572   1.438       .  S
C566        C567   1.402       .  A
C566        H571   1.084       .  S
C567        C568   1.410       .  A
C568        N569   1.438       .  S
N569        H573   1.046       .  S
N569        H574   1.046       .  S
N572        H575   1.046       .  S
N572        H576   1.045       .  S
C577        N866   1.362   1_554  A
C577        N582   1.361       .  A
C577        C824   1.487       .  S
N578        C865   1.361       .  A
N578        C579   1.356       .  A
C579        N580   1.353       .  A
C579        C852   1.481       .  S
N580        C869   1.354       .  A
C581        N868   1.354       .  A
C581        N582   1.356       .  A
C581        C838   1.475       .  S
C583        N872   1.357   1_554  A
C583        N588   1.357       .  A
C583        C785   1.479       .  S
N584        C871   1.358       .  A
N584        C585   1.354       .  A
C585        N586   1.354       .  A
C585        C810   1.479       .  S
N586        C875   1.356       .  A
C587        N874   1.359       .  A
C587        N588   1.358       .  A
C587        C799   1.481       .  S
C589        N878   1.362       .  A
C589        N594   1.361   1_556  A
C589        C740   1.482       .  S
N590        C877   1.362       .  A
N590        C591   1.356       .  A
C591        N592   1.352       .  A
C591        C771   1.477       .  S
N592        C881   1.352       .  A
C593        N880   1.354       .  A
C593        N594   1.355       .  A
C593        C754   1.475       .  S
N595        C600   1.350   1_556  A
N595        C599   1.350   1_556  A
N595        H627   1.035   1_565  S
N596        C603   1.350       .  A
N596        C604   1.349       .  A
N597        C602   1.351   1_556  A
N597        C601   1.351       .  A
N597        H628   1.037       .  S
N598        C605   1.349   1_545  A
N598        C606   1.349       .  A
C599        C607   1.387       .  A
C600        C616   1.410   1_554  A
C600        C608   1.387       .  A
C601        C609   1.387   1_556  A
C602        C617   1.413   1_554  A
C602        C610   1.387       .  A
C603        C615   1.411   1_546  A
C603        C611   1.386       .  A
C604        C618   1.411       .  A
C604        C612   1.386       .  A
C605        C613   1.386       .  A
C605        C616   1.410       .  A
C606        C614   1.386       .  A
C606        C617   1.410       .  A
C607        C608   1.373       .  A
C608        H620   1.082       .  S
C609        C610   1.375       .  A
C609        H621   1.082       .  S
C610        H622   1.082       .  S
C611        C612   1.373       .  A
C611        H623   1.082       .  S
C612        H624   1.082       .  S
C613        C614   1.372   1_565  A
C613        H625   1.082       .  S
C614        H626   1.082       .  S
C615        C782   1.481       .  S
C616        C827   1.478       .  S
C617        C743   1.481       .  S
C618        C726   1.482       .  S
C629        N630   1.361   1_556  A
C629        N922   1.362       .  A
C629        C729   1.494       .  S
N630        C631   1.355       .  A
C631        N920   1.357   1_554  A
C631        C698   1.491       .  S
N632        C919   1.354       .  A
N632        C633   1.355       .  A
C633        N634   1.361       .  A
C633        C712   1.485       .  S
N634        C917   1.361       .  A
O635       Zr647   2.440       .  S
O635        C637   1.287       .  A
O636       Zr673   2.414       .  S
O636        C637   1.285       .  A
C637        C855   1.472       .  S
O638       Zr650   2.449       .  S
O638        C640   1.288       .  A
O639       Zr674   2.399       .  S
O639        C640   1.282       .  A
C640        C796   1.467       .  S
O641       Zr650   2.452       .  S
O641        C643   1.289       .  A
O642       Zr673   2.402       .  S
O642        C643   1.282       .  A
C643        C813   1.472       .  S
O644       Zr647   2.449       .  S
O644        C646   1.288       .  A
O645       Zr674   2.396       .  S
O645        C646   1.283       .  A
C646        C841   1.485       .  S
Zr647       O648   2.435       .  S
Zr647       O649   2.435       .  S
Zr647       O653   2.381       .  S
Zr647       O654   2.367       .  S
Zr647       O677   2.372       .  S
Zr647       O679   2.375       .  S
O648        H691   0.990       .  S
O649        H690   0.990       .  S
O649        H694   0.990       .  S
Zr650       O651   2.436       .  S
Zr650       O652   2.434       .  S
Zr650       O654   2.373       .  S
Zr650       O653   2.379       .  S
Zr650       O678   2.370       .  S
Zr650       O680   2.377       .  S
O651        H692   0.990       .  S
O651        H695   0.990       .  S
O652        H685   0.990       .  S
O653       Zr673   2.374       .  S
O654       Zr674   2.373       .  S
O654        H681   0.966       .  S
O655       Zr667   2.446       .  S
O655        C657   1.288       .  A
O656       Zr674   2.401       .  S
O656        C657   1.283       .  A
C657        C757   1.477       .  S
O658       Zr670   2.436       .  S
O658        C660   1.287       .  A
O659       Zr673   2.415       .  S
O659        C660   1.286       .  A
C660        C715   1.475       .  S
O661       Zr670   2.455       .  S
O661        C663   1.290       .  A
O662       Zr674   2.402       .  S
O662        C663   1.282       .  A
C663        C701   1.479       .  S
O664       Zr667   2.447       .  S
O664        C666   1.288       .  A
O665       Zr673   2.397       .  S
O665        C666   1.283       .  A
C666        C768   1.481       .  S
Zr667       O668   2.434       .  S
Zr667       O669   2.434       .  S
Zr667       O675   2.373       .  S
Zr667       O676   2.372       .  S
Zr667       O679   2.371       .  S
Zr667       O677   2.377       .  S
O668        H688   0.990       .  S
O668        H693   0.990       .  S
O669        H689   0.990       .  S
Zr670       O671   2.434       .  S
Zr670       O672   2.436       .  S
Zr670       O676   2.376       .  S
Zr670       O675   2.368       .  S
Zr670       O680   2.371       .  S
Zr670       O678   2.381       .  S
O671        H687   0.990       .  S
O672        H686   0.990       .  S
O672        H696   0.990       .  S
Zr673       O676   2.372       .  S
Zr673       O678   2.379       .  S
Zr673       O679   2.377       .  S
Zr674       O675   2.369       .  S
Zr674       O677   2.369       .  S
Zr674       O680   2.371       .  S
O675        H683   0.966       .  S
O678        H682   0.966       .  S
O679        H684   0.966       .  S
C697        C698   1.406       .  A
C697        C702   1.395       .  A
C697        H704   1.084       .  S
C698        C699   1.422       .  A
C699        C700   1.402       .  A
C699        N706   1.431       .  S
C700        C701   1.402       .  A
C700        H705   1.084       .  S
C701        C702   1.416       .  A
C702        N703   1.434       .  S
N703        H707   1.044       .  S
N703        H708   1.045       .  S
N706        H709   1.045       .  S
N706        H710   1.045       .  S
C711        C712   1.406       .  A
C711        C716   1.406       .  A
C711        H718   1.083       .  S
C712        C713   1.417       .  A
C713        C714   1.401       .  A
C713        N720   1.438       .  S
C714        C715   1.400       .  A
C714        H719   1.084       .  S
C715        C716   1.412       .  A
C716        N717   1.438       .  S
N717        H721   1.046       .  S
N717        H722   1.046       .  S
N720        H723   1.046       .  S
N720        H724   1.046       .  S
C725       C1014   1.401       .  A
C725        C730   1.403       .  A
C725        H732   1.084       .  S
C726       C1013   1.401       .  A
C727        N734   1.440       .  S
C728        C729   1.409   1_554  A
C728        H733   1.081       .  S
C729       C1018   1.419       .  A
C730       C1017   1.413       .  A
C730        N731   1.432       .  S
N731        H735   1.046       .  S
N731        H736   1.046       .  S
N734        H737   1.043       .  S
N734        H738   1.046       .  S
C739       C1028   1.407       .  A
C739        C744   1.402       .  A
C739        H746   1.083       .  S
C740       C1027   1.407       .  A
C740        C741   1.415   1_556  A
C741        C742   1.404       .  A
C741        N748   1.438       .  S
C742        C743   1.400   1_554  A
C742        H747   1.084       .  S
C743       C1032   1.406       .  A
C744       C1031   1.407       .  A
C744        N745   1.438       .  S
N745        H749   1.046       .  S
N745        H750   1.045       .  S
N748        H751   1.046       .  S
N748        H752   1.046       .  S
C753        C754   1.400       .  A
C753        C758   1.394       .  A
C753        H760   1.082       .  S
C754        C755   1.411       .  A
C755        C756   1.411       .  A
C755        N762   1.437       .  S
C756        C757   1.407       .  A
C756        H761   1.083       .  S
C757        C758   1.412       .  A
C758        N759   1.440       .  S
N759        H763   1.046       .  S
N759        H764   1.046       .  S
N762        H765   1.046       .  S
N762        H766   1.046       .  S
C767        C768   1.404       .  A
C767        C772   1.396       .  A
C767        H774   1.083       .  S
C768        C769   1.415       .  A
C769        C770   1.408       .  A
C769        N776   1.437       .  S
C770        C771   1.403       .  A
C770        H775   1.084       .  S
C771        C772   1.413       .  A
C772        N773   1.439       .  S
N773        H777   1.045       .  S
N773        H778   1.046       .  S
N776        H779   1.046       .  S
N776        H780   1.046       .  S
C781        C782   1.402       .  A
C781        C786   1.403       .  A
C781        H788   1.084       .  S
C782       C1071   1.414   1_554  A
C783       C1070   1.414       .  A
C783        C784   1.397       .  A
C783        N790   1.439       .  S
C784       C1073   1.406       .  A
C784        H789   1.084       .  S
C785       C1072   1.404   1_554  A
C785        C786   1.411       .  A
C786        N787   1.432       .  S
N787        H791   1.046       .  S
N787        H792   1.046       .  S
N790        H793   1.043       .  S
N790        H794   1.046       .  S
C795        C796   1.400       .  A
C795        C800   1.393       .  A
C795        H802   1.084       .  S
C796        C797   1.407       .  A
C797        C798   1.406       .  A
C797        N804   1.438       .  S
C798        C799   1.409       .  A
C798        H803   1.084       .  S
C799        C800   1.415       .  A
C800        N801   1.431       .  S
N801        H805   1.046       .  S
N801        H806   1.042       .  S
N804        H807   1.045       .  S
N804        H808   1.046       .  S
C809        C810   1.406       .  A
C809        C814   1.404       .  A
C809        H816   1.084       .  S
C810        C811   1.412       .  A
C811        C812   1.402       .  A
C811        N818   1.437       .  S
C812        C813   1.403       .  A
C812        H817   1.084       .  S
C813        C814   1.409       .  A
C814        N815   1.438       .  S
N815        H819   1.046       .  S
N815        H820   1.046       .  S
N818        H821   1.045       .  S
N818        H822   1.046       .  S
C823       C1112   1.406       .  A
C823        C828   1.396       .  A
C823        H830   1.084       .  S
C824       C1111   1.408   1_554  A
C824        C825   1.419       .  A
C825        C826   1.403       .  A
C825        N832   1.438       .  S
C826        C827   1.399   1_554  A
C826        H831   1.084       .  S
C827       C1116   1.411       .  A
C828       C1115   1.412       .  A
C828        N829   1.439       .  S
N829        H833   1.046       .  S
N829        H834   1.043       .  S
N832        H835   1.046       .  S
N832        H836   1.046       .  S
C837        C838   1.404       .  A
C837        C842   1.411       .  A
C837        H844   1.084       .  S
C838        C839   1.410       .  A
C839        C840   1.395       .  A
C839        N846   1.440       .  S
C840        C841   1.405       .  A
C840        H845   1.083       .  S
C841        C842   1.416       .  A
C842        N843   1.437       .  S
N843        H847   1.046       .  S
N843        H848   1.046       .  S
N846        H849   1.046       .  S
N846        H850   1.046       .  S
C851        C852   1.406       .  A
C851        C856   1.406       .  A
C851        H858   1.083       .  S
C852        C853   1.414       .  A
C853        C854   1.401       .  A
C853        N860   1.438       .  S
C854        C855   1.401       .  A
C854        H859   1.084       .  S
C855        C856   1.410       .  A
C856        N857   1.438       .  S
N857        H861   1.046       .  S
N857        H862   1.046       .  S
N860        H863   1.046       .  S
N860        H864   1.045       .  S
C865        N870   1.360       .  A
C865       C1112   1.484       .  S
N866        C867   1.357       .  A
C867        N868   1.353   1_556  A
C867       C1140   1.484       .  S
C869        N870   1.356       .  A
C869       C1126   1.474       .  S
C871        N876   1.362       .  A
C871       C1073   1.482       .  S
N872        C873   1.355       .  A
C873        N874   1.359   1_556  A
C873       C1098   1.482       .  S
C875        N876   1.363       .  A
C875       C1087   1.487       .  S
C877        N882   1.362       .  A
C877       C1028   1.479       .  S
N878        C879   1.356       .  A
C879        N880   1.354   1_556  A
C879       C1059   1.480       .  S
C881        N882   1.355       .  A
C881       C1042   1.473       .  S
N883        C888   1.351       .  A
N883        C887   1.350       .  A
N883        H915   1.037   1_565  S
N884        C891   1.350       .  A
N884        C892   1.349       .  A
N885        C890   1.351       .  A
N885        C889   1.352       .  A
N885        H916   1.038       .  S
N886        C893   1.348   1_545  A
N886        C894   1.348       .  A
C887        C895   1.387       .  A
C888        C904   1.411       .  A
C888        C896   1.386       .  A
C889        C897   1.387       .  A
C890        C905   1.413       .  A
C890        C898   1.387       .  A
C891        C903   1.409   1_545  A
C891        C899   1.385       .  A
C892        C906   1.411       .  A
C892        C900   1.386       .  A
C893        C901   1.387       .  A
C893        C904   1.408       .  A
C894        C902   1.386       .  A
C894        C905   1.406       .  A
C895        C896   1.377       .  A
C896        H908   1.082       .  S
C897        C898   1.376       .  A
C897        H909   1.082       .  S
C898        H910   1.082       .  S
C899        C900   1.374       .  A
C899        H911   1.082       .  S
C900        H912   1.082       .  S
C901        C902   1.373   1_565  A
C901        H913   1.082       .  S
C902        H914   1.082       .  S
C903       C1070   1.483       .  S
C904       C1115   1.478       .  S
C905       C1031   1.480       .  S
C906       C1014   1.478       .  S
C917        N918   1.359       .  A
C917       C1017   1.485       .  S
N918        C919   1.353       .  A
C919        C986   1.485       .  S
N920        C921   1.357       .  A
C921        N922   1.361       .  A
C921       C1000   1.492       .  S
O923       Zr935   2.446       .  S
O923        C925   1.288       .  A
O924       Zr961   2.411       .  S
O924        C925   1.285       .  A
C925       C1143   1.477       .  S
O926       Zr938   2.435       .  S
O926        C928   1.285       .  A
O927       Zr962   2.414       .  S
O927        C928   1.285       .  A
C928       C1084   1.469       .  S
O929       Zr938   2.437       .  S
O929        C931   1.286       .  A
O930       Zr961   2.411       .  S
O930        C931   1.284       .  A
C931       C1101   1.473       .  S
O932       Zr935   2.454       .  S
O932        C934   1.289       .  A
O933       Zr962   2.392       .  S
O933        C934   1.282       .  A
C934       C1129   1.486       .  S
Zr935       O936   2.436       .  S
Zr935       O937   2.434       .  S
Zr935       O941   2.377       .  S
Zr935       O942   2.373       .  S
Zr935       O965   2.373       .  S
Zr935       O967   2.376       .  S
O936        H979   0.990       .  S
O937        H978   0.990       .  S
O937        H982   0.990       .  S
Zr938       O939   2.437       .  S
Zr938       O940   2.435       .  S
Zr938       O942   2.372       .  S
Zr938       O941   2.374       .  S
Zr938       O966   2.372       .  S
Zr938       O968   2.375       .  S
O939        H980   0.990       .  S
O939        H983   0.990       .  S
O940        H973   0.990       .  S
O941       Zr961   2.367       .  S
O942       Zr962   2.371       .  S
O942        H969   0.966       .  S
O943       Zr955   2.452       .  S
O943        C945   1.289       .  A
O944       Zr962   2.399       .  S
O944        C945   1.283       .  A
C945       C1045   1.477       .  S
O946       Zr958   2.454       .  S
O946        C948   1.290       .  A
O947       Zr961   2.407       .  S
O947        C948   1.284       .  A
C948       C1003   1.482       .  S
O949       Zr958   2.457       .  S
O949        C951   1.290       .  A
O950       Zr962   2.396       .  S
O950        C951   1.281       .  A
C951        C989   1.474       .  S
O952       Zr955   2.454       .  S
O952        C954   1.289       .  A
O953       Zr961   2.392       .  S
O953        C954   1.282       .  A
C954       C1056   1.484       .  S
Zr955       O956   2.434       .  S
Zr955       O957   2.434       .  S
Zr955       O963   2.373       .  S
Zr955       O964   2.369       .  S
Zr955       O967   2.377       .  S
Zr955       O965   2.381       .  S
O956        H976   0.990       .  S
O956        H981   0.990       .  S
O957        H977   0.990       .  S
Zr958       O959   2.434       .  S
Zr958       O960   2.435       .  S
Zr958       O964   2.373       .  S
Zr958       O963   2.375       .  S
Zr958       O968   2.374       .  S
Zr958       O966   2.380       .  S
O959        H975   0.990       .  S
O960        H974   0.990       .  S
O960        H984   0.990       .  S
Zr961       O964   2.373       .  S
Zr961       O966   2.375       .  S
Zr961       O967   2.379       .  S
Zr962       O963   2.377       .  S
Zr962       O965   2.374       .  S
Zr962       O968   2.369       .  S
O963        H971   0.966       .  S
O966        H970   0.966       .  S
O967        H972   0.966       .  S
C985        C986   1.405       .  A
C985        C990   1.394       .  A
C985        H992   1.084       .  S
C986        C987   1.421       .  A
C987        C988   1.400       .  A
C987        N994   1.432       .  S
C988        C989   1.401       .  A
C988        H993   1.084       .  S
C989        C990   1.414       .  A
C990        N991   1.434       .  S
N991        H995   1.044       .  S
N991        H996   1.046       .  S
N994        H997   1.045       .  S
N994        H998   1.045       .  S
C999       C1000   1.408       .  A
C999       C1004   1.409       .  A
C999       H1006   1.083       .  S
C1000      C1001   1.417       .  A
C1001      C1002   1.402       .  A
C1001      N1008   1.438       .  S
C1002      C1003   1.402       .  A
C1002      H1007   1.084       .  S
C1003      C1004   1.412       .  A
C1004      N1005   1.438       .  S
N1005      H1009   1.046       .  S
N1005      H1010   1.046       .  S
N1008      H1011   1.046       .  S
N1008      H1012   1.046       .  S
C1013      C1018   1.408       .  A
C1013      H1020   1.084       .  S
C1015      N1022   1.439       .  S
C1016      C1017   1.407       .  A
C1016      H1021   1.082       .  S
C1018      N1019   1.437       .  S
N1019      H1023   1.046       .  S
N1019      H1024   1.045       .  S
N1022      H1025   1.043       .  S
N1022      H1026   1.046       .  S
C1027      C1032   1.401       .  A
C1027      H1034   1.083       .  S
C1028      C1029   1.413       .  A
C1029      C1030   1.403       .  A
C1029      N1036   1.438       .  S
C1030      C1031   1.401       .  A
C1030      H1035   1.084       .  S
C1032      N1033   1.438       .  S
N1033      H1037   1.046       .  S
N1033      H1038   1.045       .  S
N1036      H1039   1.046       .  S
N1036      H1040   1.046       .  S
C1041      C1042   1.400       .  A
C1041      C1046   1.395       .  A
C1041      H1048   1.083       .  S
C1042      C1043   1.410       .  A
C1043      C1044   1.411       .  A
C1043      N1050   1.437       .  S
C1044      C1045   1.407       .  A
C1044      H1049   1.083       .  S
C1045      C1046   1.413       .  A
C1046      N1047   1.439       .  S
N1047      H1051   1.046       .  S
N1047      H1052   1.045       .  S
N1050      H1053   1.046       .  S
N1050      H1054   1.046       .  S
C1055      C1056   1.404       .  A
C1055      C1060   1.395       .  A
C1055      H1062   1.083       .  S
C1056      C1057   1.414       .  A
C1057      C1058   1.411       .  A
C1057      N1064   1.437       .  S
C1058      C1059   1.406       .  A
C1058      H1063   1.084       .  S
C1059      C1060   1.413       .  A
C1060      N1061   1.438       .  S
N1061      H1065   1.046       .  S
N1061      H1066   1.046       .  S
N1064      H1067   1.046       .  S
N1064      H1068   1.046       .  S
C1069      C1070   1.403       .  A
C1069      C1074   1.405       .  A
C1069      H1076   1.084       .  S
C1071      C1072   1.396       .  A
C1071      N1078   1.439       .  S
C1072      H1077   1.084       .  S
C1073      C1074   1.410       .  A
C1074      N1075   1.432       .  S
N1075      H1079   1.046       .  S
N1075      H1080   1.046       .  S
N1078      H1081   1.043       .  S
N1078      H1082   1.046       .  S
C1083      C1084   1.397       .  A
C1083      C1088   1.392       .  A
C1083      H1090   1.085       .  S
C1084      C1085   1.409       .  A
C1085      C1086   1.408       .  A
C1085      N1092   1.438       .  S
C1086      C1087   1.409       .  A
C1086      H1091   1.083       .  S
C1087      C1088   1.421       .  A
C1088      N1089   1.431       .  S
N1089      H1093   1.045       .  S
N1089      H1094   1.043       .  S
N1092      H1095   1.046       .  S
N1092      H1096   1.046       .  S
C1097      C1098   1.408       .  A
C1097      C1102   1.406       .  A
C1097      H1104   1.083       .  S
C1098      C1099   1.411       .  A
C1099      C1100   1.402       .  A
C1099      N1106   1.436       .  S
C1100      C1101   1.402       .  A
C1100      H1105   1.084       .  S
C1101      C1102   1.410       .  A
C1102      N1103   1.438       .  S
N1103      H1107   1.046       .  S
N1103      H1108   1.046       .  S
N1106      H1109   1.046       .  S
N1106      H1110   1.046       .  S
C1111      C1116   1.397       .  A
C1111      H1118   1.084       .  S
C1112      C1113   1.418       .  A
C1113      C1114   1.405       .  A
C1113      N1120   1.438       .  S
C1114      C1115   1.400       .  A
C1114      H1119   1.084       .  S
C1116      N1117   1.439       .  S
N1117      H1121   1.046       .  S
N1117      H1122   1.043       .  S
N1120      H1123   1.046       .  S
N1120      H1124   1.046       .  S
C1125      C1126   1.404       .  A
C1125      C1130   1.410       .  A
C1125      H1132   1.084       .  S
C1126      C1127   1.411       .  A
C1127      C1128   1.395       .  A
C1127      N1134   1.440       .  S
C1128      C1129   1.406       .  A
C1128      H1133   1.083       .  S
C1129      C1130   1.416       .  A
C1130      N1131   1.437       .  S
N1131      H1135   1.046       .  S
N1131      H1136   1.046       .  S
N1134      H1137   1.046       .  S
N1134      H1138   1.046       .  S
C1139      C1140   1.407       .  A
C1139      C1144   1.407       .  A
C1139      H1146   1.083       .  S
C1140      C1141   1.414       .  A
C1141      C1142   1.401       .  A
C1141      N1148   1.438       .  S
C1142      C1143   1.402       .  A
C1142      H1147   1.084       .  S
C1143      C1144   1.411       .  A
C1144      N1145   1.438       .  S
N1145      H1149   1.046       .  S
N1145      H1150   1.046       .  S
N1148      H1151   1.046       .  S
N1148      H1152   1.045       .  S
