geometry optimzed in LAMMPS
_audit_creation_date              2020-11-30 
_audit_creation_method            'lammps2cif' 
_symmetry_space_group_name_H-M    'P1' 
_symmetry_Int_Tables_number       1 
_symmetry_cell_setting            triclinic 
loop_ 
_symmetry_equiv_pos_as_xyz 
  x,y,z 
_cell_length_a                    28.353534919011306 
_cell_length_b                    28.25398437400684 
_cell_length_c                    32.18993688034666 
_cell_angle_alpha                 90.8904062018558 
_cell_angle_beta                  91.2590366607054 
_cell_angle_gamma                 90.25688714434777 
loop_ 
_atom_site_label 
_atom_site_type_symbol 
_atom_site_fract_x 
_atom_site_fract_y 
_atom_site_fract_z 
_atom_site_charge 
C1          C  0.25134555  0.82565372  0.32236521     0.43080
N2          N  0.29051521  0.76026455  0.32084478     0.01970
C3          C  0.20925018  0.53355865  0.36007675    -0.05900
H4          H  0.15810252  0.66052494  0.46496780     0.07470
C5          C  0.34258348  0.66938053  0.50097366    -0.06250
Co6        Co  0.22728103  0.67330946  0.32113017     0.74180
N7          N  0.19571440  0.66459465  0.40842813    -0.25430
Co8        Co  0.24911338  0.61451327  0.41313485     0.74070
C9          C  0.30074147  0.66337939  0.52725395     0.43190
N10         N  0.38813118  0.71463059  0.40473233     0.01750
N11         N  0.28232407  0.64944535  0.46254824     0.01700
N12         N  0.20009996  0.56631015  0.29676910    -0.46280
H13         H  0.18072180  0.78446518  0.32410859     0.07450
N14         N  0.18719513  0.68610098  0.37319142     0.01980
N15         N  0.30183392  0.56333989  0.41771734     0.01720
C16         C  0.34081446  0.50263166  0.43851877     0.43330
N17         N  0.38023215  0.73953269  0.37101660    -0.24890
C18         C  0.25348630  0.65007595  0.23017581    -0.05810
N19         N  0.29526171  0.80704227  0.32148926    -0.45990
N20         N  0.29699387  0.52079091  0.43394802    -0.46220
C21         C  0.29440030  0.65917111  0.20459566     0.43100
N22         N  0.21274651  0.59885261  0.32562977     0.01970
N23         N  0.39405516  0.65697477  0.31993884    -0.24910
N24         N  0.24592967  0.74622959  0.32068973    -0.25400
N25         N  0.40279021  0.63067872  0.35281380     0.01610
H26         H  0.41843393  0.65509913  0.25703928     0.07500
H27         H  0.41133893  0.54070908  0.43024021     0.07530
N28         N  0.21936802  0.57950095  0.36237733    -0.25450
N29         N  0.32786108  0.65890761  0.46194001    -0.25060
N30         N  0.31114205  0.67864187  0.26785983     0.01970
C31         C  0.13053763  0.70931195  0.41233501     0.43370
C32         C  0.41025882  0.77646877  0.37173863    -0.06310
N33         N  0.34643028  0.57510049  0.41352621    -0.25060
H34         H  0.37894993  0.67617725  0.50923428     0.07520
N35         N  0.14887179  0.71256397  0.37412797    -0.46280
H36         H  0.41641009  0.79930145  0.34572729     0.07510
C37         C  0.44513479  0.60159563  0.30464099     0.43210
C38         C  0.21872598  0.78496886  0.32219850    -0.05810
Co39       Co  0.34417629  0.70985536  0.31974920     0.73820
N40         N  0.42302721  0.73204984  0.42818802    -0.46000
C41         C  0.19761486  0.52396724  0.31670449     0.43470
N42         N  0.32856497  0.67714703  0.23005439    -0.45990
Co43       Co  0.36687940  0.64478998  0.40827988     0.73890
C44         C  0.37354044  0.53885720  0.42509878    -0.06320
C45         C  0.16178270  0.67639151  0.43499211    -0.05880
N46         N  0.26723089  0.66340575  0.26871581    -0.25410
N47         N  0.26542443  0.65153957  0.50027198    -0.46170
H48         H  0.21306991  0.50909804  0.38542651     0.07480
C49         C  0.41941048  0.64141786  0.28822101    -0.06290
Cl50       Cl  0.29683794  0.66088718  0.36566964    -0.49300
C51         C  0.43936831  0.77098536  0.40964792     0.43230
H52         H  0.21809022  0.63955246  0.22070666     0.07450
N53         N  0.43315802  0.59619368  0.34479431    -0.46010
C54         C  0.29681334  0.67194363  0.02515329     0.43080
N55         N  0.27662022  0.64817749  0.96376804     0.01970
C56         C  0.41391384  0.64724216  0.78757067    -0.05900
H57         H  0.40420637  0.79819199  0.84084750     0.07470
C58         C  0.20509406  0.77840076  0.82233149    -0.06250
Co59       Co  0.35995538  0.64518494  0.90719748     0.74180
N60         N  0.36915010  0.73889166  0.86827671    -0.25430
Co61       Co  0.33191167  0.70597306  0.81872999     0.74070
C62         C  0.23822381  0.81854265  0.82398253     0.43190
N63         N  0.17594472  0.67881485  0.87600791     0.01590
N64         N  0.27700023  0.75375951  0.82112988     0.01700
N65         N  0.43546290  0.60680617  0.84483508    -0.46280
H66         H  0.37337458  0.68566990  0.00578028     0.07450
N67         N  0.37820900  0.71552785  0.90261548     0.01980
N68         N  0.29820597  0.67171819  0.76875301     0.01720
C69         C  0.28341453  0.64283751  0.70736974     0.43330
N70         N  0.18657928  0.65902476  0.91176788    -0.24890
C71         C  0.36902117  0.53772598  0.91963839    -0.05810
N72         N  0.26068611  0.65412071  0.00178841    -0.45990
N73         N  0.31603390  0.66577394  0.73146268    -0.46220
C74         C  0.33713357  0.49938964  0.93078708     0.43100
N75         N  0.39702136  0.63249451  0.85141798     0.01970
N76         N  0.21257531  0.57379488  0.86663258    -0.24910
N77         N  0.32167782  0.65963565  0.96089993    -0.25400
N78         N  0.20235068  0.59225353  0.83012419     0.01610
H79         H  0.20912116  0.50380323  0.89114656     0.07500
H80         H  0.20910326  0.61852251  0.72766520     0.07530
N81         N  0.38462537  0.65660562  0.81825852    -0.25450
N82         N  0.23246538  0.73952091  0.82128015    -0.25060
N83         N  0.29707918  0.56196119  0.91835502     0.01970
C84         C  0.42778034  0.77348976  0.90587522     0.43370
C85         C  0.15198325  0.66908286  0.93843441    -0.06310
N86         N  0.25511490  0.65478297  0.77100749    -0.25060
H87         H  0.16704160  0.77852008  0.82269045     0.07520
N88         N  0.41269301  0.73475577  0.92543928    -0.46280
H89         H  0.14983905  0.65546094  0.96952329     0.07510
C90         C  0.18457221  0.51793909  0.82430415     0.43210
C91         C  0.33728762  0.67589523  0.99801985    -0.05810
Co92       Co  0.24270339  0.61097953  0.91581306     0.73820
N93         N  0.13512676  0.70132068  0.87625253    -0.46000
C94         C  0.44859306  0.61490898  0.80502576     0.43470
N95         N  0.29315285  0.51735140  0.92996970    -0.45990
Co96       Co  0.21546998  0.66625781  0.82353050     0.73890
C97         C  0.24282114  0.63503696  0.73421524    -0.06320
C98         C  0.39854710  0.77641644  0.86764048    -0.05880
N99         N  0.34118341  0.57485807  0.91290113    -0.25410
N100        N  0.28185219  0.80029697  0.82206811    -0.46170
H101        H  0.41152221  0.66329612  0.75747444     0.07480
C102        C  0.20294158  0.52776995  0.86576837    -0.06290
Cl103      Cl  0.28750500  0.65721916  0.86641275    -0.49300
C104        C  0.11734752  0.69713374  0.91454432     0.43230
H105        H  0.40714621  0.53899084  0.92138424     0.07450
N106        N  0.18542818  0.55952496  0.80323199    -0.46010
C107        C  0.92184425  0.74434568  0.94852264     0.43080
N108        N  0.86844935  0.77227321  0.98764302     0.01970
C109        C  0.64579033  0.85867752  0.94355671    -0.05900
H110        H  0.76497175  0.92600240  0.84980574     0.07470
C111        C  0.86013267  0.98968977  0.97505822    -0.06250
Co112      Co  0.77383186  0.78521250  0.94567434     0.74180
N113        N  0.77327191  0.87249895  0.89601905    -0.25430
Co114      Co  0.74453154  0.90340305  0.94813773     0.74070
C115        C  0.85045169  0.00195175  0.93145873     0.43190
N116        N  0.88094168  0.89771712  0.04394738     0.01590
N117        N  0.79842935  0.95259155  0.95099611     0.01700
N118        N  0.66318487  0.78057949  0.93894239    -0.46280
H119        H  0.87061759  0.74139626  0.89154737     0.07450
N120        N  0.78564795  0.82767348  0.89441730     0.01980
N121        N  0.71577698  0.93482276  0.99981176     0.01720
C122        C  0.67516438  0.98422190  0.03534255     0.43330
N123        N  0.89004306  0.85209977  0.04496036    -0.24890
C124        C  0.73599954  0.70404650  0.99916534    -0.05810
N125        N  0.91310553  0.75937595  0.98726676    -0.45990
N126        N  0.67611925  0.95917755  0.99941310    -0.46220
C127        C  0.74614280  0.68597885  0.04052921     0.43100
N128        N  0.70211996  0.80684635  0.94331787     0.01970
N129        N  0.80508031  0.83385130  0.08951130    -0.24910
N130        N  0.84629959  0.76688342  0.95123747    -0.25400
N131        N  0.79577009  0.87958208  0.08998376     0.01610
H132        H  0.80671514  0.78117664  0.13687657     0.07500
H133        H  0.73303146  0.98926232  0.08636481     0.07530
N134        N  0.69239389  0.85246645  0.94567748    -0.25450
N135        N  0.82574023  0.95882897  0.98440776    -0.25060
N136        N  0.78425702  0.75070010  0.03289418     0.01970
C137        C  0.79218934  0.85210760  0.83183616     0.43370
C138        C  0.93487885  0.84613250  0.05778538    -0.06310
N139        N  0.74174138  0.94288564  0.03356797    -0.25060
H140        H  0.88857018  0.00132022  0.99575837     0.07520
N141        N  0.79642330  0.81364050  0.85626781    -0.46280
H142        H  0.95069483  0.81258838  0.06562681     0.07510
C143        C  0.78291579  0.85717192  0.15233702     0.43210
C144        C  0.87770925  0.74951836  0.92402595    -0.05810
Co145      Co  0.83683087  0.80163342  0.03902675     0.73820
N146        N  0.91739091  0.92371788  0.05717819    -0.46000
C147        C  0.62641211  0.81129461  0.93945398     0.43470
N148        N  0.77703689  0.71616503  0.05934068    -0.45990
Co149      Co  0.81137509  0.92071008  0.03836813     0.73890
C150        C  0.71850994  0.97269928  0.05835728    -0.06320
C151        C  0.77644624  0.89092004  0.85825533    -0.05880
N152        N  0.76140269  0.74390048  0.99714741    -0.25410
N153        N  0.81200654  0.97732617  0.91897541    -0.46170
H154        H  0.62787279  0.89238780  0.94330537     0.07480
C155        C  0.79783787  0.81659827  0.12725855    -0.06290
Cl156      Cl  0.79168743  0.85259381  0.99281297    -0.49300
C157        C  0.95333857  0.89377569  0.06563573     0.43230
H158        H  0.71649956  0.68750178  0.97355421     0.07450
N159        N  0.78295085  0.89508182  0.12711036    -0.46010
C160        C  0.93362473  0.74984155  0.44861851     0.43080
N161        N  0.87727455  0.77267126  0.48720344     0.01970
C162        C  0.65579217  0.85917984  0.44511072    -0.05900
H163        H  0.77576719  0.92974915  0.35108364     0.07470
C164        C  0.87097990  0.98974203  0.47717561    -0.06250
Co165      Co  0.78409795  0.78672544  0.44424853     0.74180
N166        N  0.78364054  0.87541656  0.39671614    -0.25430
Co167      Co  0.75467547  0.90526503  0.44924127     0.74070
C168        C  0.86163083  0.00254970  0.43330720     0.43190
N169        N  0.88937022  0.89435882  0.54539821     0.01590
N170        N  0.80927827  0.95317262  0.45289424     0.01700
N171        N  0.67461913  0.78147972  0.43837880    -0.46280
H172        H  0.88390379  0.74777381  0.39029012     0.07450
N173        N  0.79658049  0.83081758  0.39459770     0.01980
N174        N  0.72617522  0.93724715  0.50151081     0.01720
C175        C  0.68984537  0.98909046  0.53857411     0.43330
N176        N  0.89737291  0.84862103  0.54648087    -0.24890
C177        C  0.74744739  0.70142769  0.49176567    -0.05810
N178        N  0.92244251  0.76253332  0.48737927    -0.45990
N179        N  0.68898288  0.96543004  0.50164967    -0.46220
C180        C  0.76036428  0.67795483  0.53045702     0.43100
N181        N  0.71294900  0.80846571  0.44235292     0.01970
N182        N  0.81084944  0.83014752  0.58911293    -0.24910
N183        N  0.85655938  0.76859474  0.45015643    -0.25400
N184        N  0.80278416  0.87617906  0.58991687     0.01610
H185        H  0.80643367  0.77643077  0.63555795     0.07500
H186        H  0.74777303  0.98800332  0.58918382     0.07530
N187        N  0.70257069  0.85392451  0.44602042    -0.25450
N188        N  0.83655468  0.95862659  0.48638720    -0.25060
N189        N  0.79312733  0.74685550  0.52955214     0.01970
C190        C  0.80349311  0.85629688  0.33245157     0.43370
C191        C  0.94174848  0.84143649  0.55971515    -0.06310
N192        N  0.75237782  0.94255346  0.53546645    -0.25060
H193        H  0.89904003  0.00137666  0.49824986     0.07520
N194        N  0.80787611  0.81756299  0.35643287    -0.46280
H195        H  0.95666945  0.80742814  0.56738348     0.07510
C196        C  0.78381169  0.85304462  0.65082951     0.43210
C197        C  0.88967571  0.75402752  0.42322876    -0.05810
Co198      Co  0.84432804  0.79896825  0.53857744     0.73820
N199        N  0.92611597  0.91938485  0.55921927    -0.46000
C200        C  0.63751450  0.81136313  0.44038218     0.43470
N201        N  0.78870816  0.70846523  0.55226029    -0.45990
Co202      Co  0.82077924  0.91877127  0.53971894     0.73890
C203        C  0.73157838  0.97303920  0.56117999    -0.06320
C204        C  0.78722821  0.89456137  0.35922780    -0.05880
N205        N  0.77076797  0.74262329  0.49339786    -0.25410
N206        N  0.82315550  0.97792009  0.42105416    -0.46170
H207        H  0.63710118  0.89243026  0.44637991     0.07480
C208        C  0.79993790  0.81241213  0.62608639    -0.06290
Cl209      Cl  0.80078696  0.85235348  0.49304780    -0.49300
C210        C  0.96097944  0.88843200  0.56826009     0.43230
H211        H  0.72827143  0.68780294  0.46475029     0.07450
N212        N  0.78690385  0.89119599  0.62615649    -0.46010
C213        C  0.54798140  0.49677722  0.18167081     0.43080
N214        N  0.60030655  0.44994342  0.15798983     0.01970
C215        C  0.59325901  0.30882524  0.98078171    -0.05900
H216        H  0.44023542  0.31405152  0.04381048     0.07470
C217        C  0.52139860  0.24620434  0.18354751    -0.06250
Co218      Co  0.58394740  0.41745970  0.07008229     0.74180
N219        N  0.50343042  0.35048887  0.06501054    -0.25430
Co220      Co  0.55552971  0.29890555  0.06860276     0.74070
C221        C  0.47577331  0.24169643  0.16117958     0.43190
N222        N  0.61405612  0.32604656  0.21069719     0.01590
N223        N  0.52635754  0.27094137  0.12070071     0.01700
N224        N  0.61071045  0.38710025  0.97947181    -0.46280
H225        H  0.50769657  0.49677421  0.11823233     0.07450
N226        N  0.51445756  0.39566733  0.06774534     0.01980
N227        N  0.60691464  0.24717454  0.07193919     0.01720
C228        C  0.64096778  0.18043241  0.06335940     0.43330
N229        N  0.62692750  0.37086886  0.21010340    -0.24890
C230        C  0.67299669  0.47205142  0.04777871    -0.05810
N231        N  0.58721949  0.47292902  0.19165823    -0.45990
N232        N  0.61014249  0.21075431  0.04585767    -0.46220
C233        C  0.71519902  0.48867513  0.07026450     0.43100
N234        N  0.59665476  0.37437059  0.01685710     0.01970
N235        N  0.70564546  0.35070361  0.15669076    -0.24910
N236        N  0.57189218  0.45622548  0.12556027    -0.25400
N237        N  0.69520349  0.30532682  0.15931234     0.01610
H238        H  0.76987803  0.39018021  0.15533031     0.07500
H239        H  0.67682381  0.18537840  0.12797993     0.07530
N240        N  0.58591836  0.32886671  0.01782788    -0.25450
N241        N  0.55086694  0.26468155  0.15561969    -0.25060
N242        N  0.68052015  0.43508709  0.10569852     0.01970
C243        C  0.44146394  0.39542619  0.04790599     0.43370
C244        C  0.62196132  0.38982129  0.24810274    -0.06310
N245        N  0.63266507  0.24172049  0.10612387    -0.25060
H246        H  0.53056459  0.23738087  0.21526361     0.07520
N247        N  0.47884521  0.42340878  0.05758307    -0.46280
H248        H  0.63154968  0.42551333  0.25763733     0.07510
C249        C  0.77153386  0.30886131  0.16296247     0.43210
C250        C  0.53725569  0.48576619  0.13748487    -0.05810
Co251      Co  0.65409728  0.40192809  0.15756753     0.73820
N252        N  0.60118232  0.31243303  0.24802094    -0.46000
C253        C  0.60958092  0.34718842  0.95535504     0.43470
N254        N  0.71707717  0.46448794  0.10619322    -0.45990
Co255      Co  0.62347685  0.28343738  0.15866063     0.73890
C256        C  0.65645471  0.20122948  0.10309499    -0.06320
C257        C  0.45795485  0.34670876  0.05284023    -0.05880
N258        N  0.65331792  0.44031848  0.07245385    -0.25410
N259        N  0.48175581  0.25809021  0.12283160    -0.46170
H260        H  0.58505527  0.27254961  0.97204172     0.07480
C261        C  0.75238556  0.35636492  0.15741361    -0.06290
Cl262      Cl  0.60456189  0.35023295  0.11356389    -0.49300
C263        C  0.60410054  0.35137210  0.27279300     0.43230
H264        H  0.65549923  0.48784408  0.02123788     0.07450
N265        N  0.73368110  0.27906996  0.16347854    -0.46010
C266        C  0.55723827  0.50288780  0.69316703     0.43080
N267        N  0.55929860  0.43270978  0.66686063     0.01970
C268        C  0.75621774  0.29957917  0.61827092    -0.05900
H269        H  0.72046556  0.42815871  0.51573088     0.07470
C270        C  0.56339528  0.33661880  0.47831071    -0.06250
Co271      Co  0.65748787  0.39671422  0.65987719     0.74180
N272        N  0.68841374  0.40737526  0.57243264    -0.25430
Co273      Co  0.67113238  0.33484161  0.56688355     0.74070
C274        C  0.60163560  0.35492698  0.45314142     0.43190
N275        N  0.50352599  0.35255845  0.57340311     0.01590
N276        N  0.62639584  0.34667653  0.51629978     0.01700
N277        N  0.74794439  0.34103593  0.67833139    -0.46280
H278        H  0.63824601  0.50880084  0.69374450     0.07450
N279        N  0.68117593  0.43019139  0.60777580     0.01980
N280        N  0.65061619  0.26276738  0.56446304     0.01720
C281        C  0.64815463  0.18702607  0.56264081     0.43330
N282        N  0.49702545  0.37610209  0.60841251    -0.24890
C283        C  0.65138149  0.35764614  0.74811573    -0.05810
N284        N  0.53068710  0.46504357  0.68202490    -0.45990
N285        N  0.67785062  0.22476115  0.56206211    -0.46220
C286        C  0.61437757  0.33796751  0.77402989     0.43100
N287        N  0.71122299  0.34697600  0.65274067     0.01970
N288        N  0.52242355  0.29192461  0.65555915    -0.24910
N289        N  0.60384094  0.44622047  0.66818119    -0.25400
N290        N  0.52246948  0.26925223  0.61958277     0.01610
H291        H  0.48202113  0.28495798  0.71031916     0.07500
H292        H  0.56735729  0.18530051  0.56491732     0.07530
N293        N  0.71571010  0.32358060  0.61728833    -0.25450
N294        N  0.58205635  0.33267312  0.51671087    -0.25060
N295        N  0.58718976  0.34822078  0.71135182     0.01970
C296        C  0.71279042  0.48313762  0.56982228     0.43370
C297        C  0.45978316  0.40490632  0.60235831    -0.06310
N298        N  0.60541850  0.25133803  0.56588495    -0.25060
H299        H  0.52868032  0.32419330  0.46867114     0.07520
N300        N  0.69456704  0.47479777  0.60723537    -0.46280
H301        H  0.44587460  0.42789221  0.62606272     0.07510
C302        C  0.46949628  0.23405221  0.65534754     0.43210
C303        C  0.60614712  0.49037997  0.68435035    -0.05810
Co304      Co  0.54116683  0.36222231  0.66087189     0.73820
N305        N  0.47303087  0.36313643  0.54375503    -0.46000
C306        C  0.77742339  0.31106910  0.65875060     0.43470
N307        N  0.57559511  0.33373221  0.74869147    -0.45990
Co308      Co  0.55321459  0.30106943  0.56851446     0.73890
C309        C  0.60043702  0.20450177  0.56475601    -0.06320
C310        C  0.70865285  0.43779555  0.54631341    -0.05880
N311        N  0.63145250  0.36232524  0.71048098    -0.25410
N312        N  0.63960263  0.35979597  0.47898588    -0.46170
H313        H  0.77095949  0.28020693  0.59241811     0.07480
C314        C  0.49344597  0.27003848  0.68109144    -0.06290
Cl315      Cl  0.60577536  0.34876040  0.61406705    -0.49300
C316        C  0.44320528  0.39548748  0.55895959     0.43230
H317        H  0.68583320  0.37156549  0.75632569     0.07450
N318        N  0.49003825  0.23520459  0.61772716    -0.46010
C319        C  0.21465142  0.02617805  0.30126572     0.43080
N320        N  0.19297610  0.07817602  0.25698478     0.01970
C321        C  0.10735956  0.30657459  0.27858624    -0.05900
H322        H  0.03375153  0.18864411  0.38175450     0.07470
C323        C  0.97876066  0.08621438  0.26368922    -0.06250
Co324      Co  0.17856141  0.17677053  0.29104482     0.74180
N325        N  0.09006040  0.18300630  0.33818091    -0.25430
Co326      Co  0.06002034  0.20660316  0.28301422     0.74070
C327        C  0.96640896  0.09871847  0.30652069     0.43190
N328        N  0.07041376  0.06220904  0.19930019     0.01590
N329        N  0.01263602  0.15146616  0.28370272     0.01700
N330        N  0.18428683  0.28705584  0.28531983    -0.46280
H331        H  0.21568325  0.08205634  0.35481397     0.07450
N332        N  0.13452125  0.17022961  0.34173663     0.01980
N333        N  0.02643261  0.22891823  0.22835017     0.01720
C334        C  0.96959720  0.25550401  0.18948823     0.43330
N335        N  0.11546764  0.05160646  0.19802249    -0.24890
C336        C  0.26143000  0.21082338  0.23942558    -0.05810
N337        N  0.20306617  0.03303391  0.26123906    -0.45990
N338        N  0.99331305  0.26188994  0.22622102    -0.46220
C339        C  0.28286277  0.19729669  0.20050201     0.43100
N340        N  0.15694329  0.24873405  0.28569439     0.01970
N341        N  0.13618724  0.13263940  0.14835407    -0.24910
N342        N  0.19661082  0.10313867  0.29207403    -0.25400
N343        N  0.09052982  0.14198836  0.14638941     0.01610
H344        H  0.18993973  0.12900985  0.10203098     0.07500
H345        H  0.97939098  0.19576029  0.14159895     0.07530
N346        N  0.11168714  0.25943097  0.28165447    -0.25450
N347        N  0.00802767  0.12118004  0.25216497    -0.25060
N348        N  0.21841108  0.15809615  0.20682576     0.01970
C349        C  0.10748846  0.16443864  0.40339826     0.43370
C350        C  0.11913640  0.00525011  0.18831297    -0.06310
N351        N  0.02417117  0.20002038  0.19590418    -0.25060
H352        H  0.96916690  0.05513371  0.24532883     0.07520
N353        N  0.14670733  0.15926393  0.38046666    -0.46280
H354        H  0.15177135  0.98689987  0.18255272     0.07510
C355        C  0.11407076  0.15070623  0.08402561     0.43210
C356        C  0.21050073  0.07292762  0.32230847    -0.05810
Co357      Co  0.16658756  0.10521923  0.20216583     0.73820
N358        N  0.04265621  0.02570115  0.19056229    -0.46000
C359        C  0.15567153  0.32519656  0.28071102     0.43470
N360        N  0.25484949  0.16374430  0.18212867    -0.45990
Co361      Co  0.04788906  0.13126234  0.19811379     0.73890
C362        C  0.99193199  0.21562625  0.16865308    -0.06320
C363        C  0.06995982  0.17990986  0.37525846    -0.05880
N364        N  0.22231065  0.18442892  0.24093740    -0.25410
N365        N  0.98880007  0.13923615  0.31660761    -0.46170
H366        H  0.07431527  0.32541750  0.27633934     0.07480
C367        C  0.15416476  0.13727868  0.11047382    -0.06290
Cl368      Cl  0.11338385  0.15519537  0.24342016    -0.49300
C369        C  0.07026491  0.98793552  0.18353824     0.43230
H370        H  0.27524291  0.23347480  0.26425477     0.07450
N371        N  0.07582019  0.15264646  0.10832301    -0.46010
C372        C  0.21380016  0.01983010  0.79224456     0.43080
N373        N  0.18696189  0.07496728  0.75280199     0.01970
C374        C  0.10145578  0.29975869  0.78100217    -0.05900
H375        H  0.03227756  0.18167039  0.88408738     0.07470
C376        C  0.96942370  0.08433455  0.76333074    -0.06250
Co377      Co  0.17483804  0.17120985  0.79008841     0.74180
N378        N  0.08709031  0.17541654  0.83901735    -0.25430
Co379      Co  0.05585429  0.20109579  0.78522093     0.74070
C380        C  0.95712987  0.09625538  0.80620157     0.43190
N381        N  0.06275034  0.05999825  0.69890660     0.01590
N382        N  0.00705280  0.14677586  0.78539251     0.01700
N383        N  0.17913555  0.28275208  0.78731678    -0.46280
H384        H  0.21839762  0.07312110  0.84844589     0.07450
N385        N  0.13175408  0.16285386  0.84152101     0.01980
N386        N  0.02267805  0.22645426  0.73192556     0.01720
C387        C  0.97090664  0.26231268  0.69418808     0.43330
N388        N  0.10801804  0.05054041  0.69811402    -0.24890
C389        C  0.25756349  0.20413093  0.73565704    -0.05810
N390        N  0.19813584  0.03006141  0.75400897    -0.45990
N391        N  0.99539008  0.26433410  0.73065307    -0.46220
C392        C  0.27558429  0.19128234  0.69485061     0.43100
N393        N  0.15290640  0.24345830  0.78714773     0.01970
N394        N  0.12621309  0.13191238  0.64776550    -0.24910
N395        N  0.19296295  0.09761805  0.78866038    -0.25400
N396        N  0.08046509  0.14062535  0.64619813     0.01610
H397        H  0.17985172  0.12950813  0.60150497     0.07500
H398        H  0.96868986  0.20135795  0.64627076     0.07530
N399        N  0.10735373  0.25308295  0.78392629    -0.25450
N400        N  0.00074134  0.11794782  0.75304217    -0.25060
N401        N  0.20985020  0.15559329  0.70354023     0.01970
C402        C  0.10627117  0.15649171  0.90362482     0.43370
C403        C  0.11356535  0.00386023  0.69256321    -0.06310
N404        N  0.01606852  0.19846259  0.69920934    -0.25060
H405        H  0.95763896  0.05495585  0.74376431     0.07520
N406        N  0.14495345  0.15165785  0.87995225    -0.46280
H407        H  0.14698769  0.98615609  0.68936912     0.07510
C408        C  0.10353388  0.14940029  0.58360568     0.43210
C409        C  0.20989324  0.06542016  0.81619100    -0.05810
Co410      Co  0.15823459  0.10368718  0.70017229     0.73820
N411        N  0.03633013  0.02189161  0.69298054    -0.46000
C412        C  0.14877855  0.31959667  0.78266454     0.43470
N413        N  0.24446775  0.16059041  0.67694325    -0.45990
Co414      Co  0.03926739  0.12900238  0.69881242     0.73890
C415        C  0.98487665  0.21857567  0.67326945    -0.06320
C416        C  0.06800080  0.17213406  0.87650676    -0.05880
N417        N  0.21706909  0.17999306  0.73839869    -0.25410
N418        N  0.98206501  0.13488018  0.81775133    -0.46170
H419        H  0.06792346  0.31778052  0.77918363     0.07480
C420        C  0.14393254  0.13708835  0.60996235    -0.06290
Cl421      Cl  0.10723040  0.15165904  0.74347224    -0.49300
C422        C  0.06574441  0.98471765  0.68888608     0.43230
H423        H  0.27423316  0.22475286  0.76051745     0.07450
N424        N  0.06529919  0.15093310  0.60810992    -0.46010
C425        C  0.10538688  0.16000357  0.44949051    -0.04710
C426        C  0.08116857  0.19401443  0.47382674    -0.01830
C427        C  0.07915034  0.18946346  0.51740094     0.03160
C428        C  0.10230361  0.15174584  0.53736554    -0.04710
C429        C  0.12537782  0.11703871  0.51302655    -0.01820
C430        C  0.12698077  0.12123462  0.46939943     0.03160
C431        C  0.06004543  0.23519611  0.45467993     0.37810
C432        C  0.14564836  0.07557037  0.53244851     0.37800
C433        C  0.14950883  0.08450446  0.44494416     0.36220
C434        C  0.05421153  0.22451710  0.54186231     0.36220
N435        N  0.16736258  0.05496748  0.42566383    -0.38600
N436        N  0.03414245  0.25227920  0.56140456    -0.38600
N437        N  0.16175110  0.04236769  0.54776197    -0.38040
N438        N  0.04308938  0.26818978  0.43972038    -0.38050
C439        C  0.10636184  0.15458438  0.94979524    -0.04710
C440        C  0.08969250  0.19307415  0.97397736    -0.01830
C441        C  0.09187602  0.19146321  0.01780881     0.03160
C442        C  0.11179691  0.15202152  0.03786390    -0.04710
C443        C  0.12740411  0.11315709  0.01365684    -0.01820
C444        C  0.12310078  0.11388066  0.96992401     0.03160
C445        C  0.07016796  0.23452407  0.95412665     0.37810
C446        C  0.14674402  0.07167879  0.03347400     0.37800
C447        C  0.13116907  0.07108610  0.94575101     0.36220
C448        C  0.07469727  0.23106840  0.04234307     0.36220
N449        N  0.13564684  0.03663727  0.92639683    -0.38600
N450        N  0.06094960  0.26256249  0.06197253    -0.38600
N451        N  0.16286602  0.03862287  0.04890587    -0.38040
N452        N  0.05389445  0.26753205  0.93866953    -0.38050
C453        C  0.92269792  0.28165558  0.68918572    -0.04710
C454        C  0.88668682  0.26760107  0.71626356    -0.01830
C455        C  0.83917855  0.27859414  0.70697320     0.03160
C456        C  0.82752579  0.30404229  0.67092161    -0.04710
C457        C  0.86382202  0.32080358  0.64540946    -0.01820
C458        C  0.91124178  0.30922532  0.65436910     0.03160
C459        C  0.89814923  0.24003733  0.75273983     0.37810
C460        C  0.85251548  0.35026668  0.61007025     0.37800
C461        C  0.94837088  0.32547186  0.62768330     0.36220
C462        C  0.80201255  0.26131063  0.73315055     0.36220
N463        N  0.97804942  0.33860195  0.60654003    -0.38600
N464        N  0.77229387  0.24727180  0.75380763    -0.38600
N465        N  0.84353600  0.37387293  0.58194289    -0.38040
N466        N  0.90748925  0.21835371  0.78196591    -0.38050
C467        C  0.32334384  0.20232779  0.67933604    -0.04710
C468        C  0.35316010  0.16644157  0.66354485    -0.01830
C469        C  0.40061611  0.17702496  0.65417425     0.03160
C470        C  0.41820870  0.22351130  0.65981080    -0.04710
C471        C  0.38657900  0.26010488  0.67125437    -0.01820
C472        C  0.34018121  0.24922375  0.68236227     0.03160
C473        C  0.33606634  0.11815818  0.65897702     0.37810
C474        C  0.40069564  0.30955474  0.67114338     0.37800
C475        C  0.30990115  0.28679527  0.69736776     0.36220
C476        C  0.43167368  0.13992665  0.63967167     0.36220
N477        N  0.28644770  0.31691531  0.70996997    -0.38600
N478        N  0.45648889  0.11043035  0.62793240    -0.38600
N479        N  0.41110813  0.34919692  0.67181693    -0.38040
N480        N  0.32248102  0.07960257  0.65522790    -0.38050
C481        C  0.61063051  0.34542081  0.90925140    -0.04710
C482        C  0.65377928  0.34955589  0.88894997    -0.01830
C483        C  0.65581928  0.34246964  0.84544886     0.03160
C484        C  0.61364645  0.33674763  0.82089354    -0.04710
C485        C  0.57031118  0.33168226  0.84194443    -0.01820
C486        C  0.56938669  0.33387718  0.88574281     0.03160
C487        C  0.69669264  0.35870330  0.91326684     0.37810
C488        C  0.52596596  0.32385369  0.81936679     0.37800
C489        C  0.52573319  0.32291436  0.90641408     0.36220
C490        C  0.70194018  0.33750349  0.82739017     0.36220
N491        N  0.49084970  0.31321324  0.92232366    -0.38600
N492        N  0.73924699  0.33312325  0.81397160    -0.38600
N493        N  0.49028781  0.31783171  0.80185691    -0.38040
N494        N  0.73088928  0.36604805  0.93263132    -0.38050
C495        C  0.60327104  0.35104429  0.31858832    -0.04710
C496        C  0.56182338  0.36342033  0.33924447    -0.01830
C497        C  0.56195062  0.36688863  0.38301795     0.03160
C498        C  0.60310017  0.35572846  0.40667708    -0.04710
C499        C  0.64494184  0.34369943  0.38542913    -0.01820
C500        C  0.64495243  0.34188010  0.34159042     0.03160
C501        C  0.51904318  0.37292181  0.31524813     0.37810
C502        C  0.68817185  0.33246493  0.40806310     0.37800
C503        C  0.68804022  0.33074008  0.31993237     0.36220
C504        C  0.52039689  0.38482085  0.40327428     0.36220
N505        N  0.72230434  0.32205712  0.30252345    -0.38600
N506        N  0.48736985  0.39972221  0.41928358    -0.38600
N507        N  0.72291615  0.32360789  0.42577229    -0.38040
N508        N  0.48497320  0.38020816  0.29598247    -0.38050
C509        C  0.82224772  0.29508950  0.17100349    -0.04710
C510        C  0.83678440  0.24765531  0.16450677    -0.01830
C511        C  0.88386515  0.23418101  0.17311394     0.03160
C512        C  0.91884275  0.26877532  0.18355770    -0.04710
C513        C  0.90465945  0.31587318  0.19037543    -0.01820
C514        C  0.85659414  0.32857014  0.18615482     0.03160
C515        C  0.80375282  0.21193127  0.14869864     0.37810
C516        C  0.93969649  0.35152691  0.20226662     0.37800
C517        C  0.84326850  0.37545405  0.20038348     0.36220
C518        C  0.89477539  0.18401593  0.17410696     0.36220
N519        N  0.83374835  0.41295899  0.21243103    -0.38600
N520        N  0.90292876  0.14393555  0.17524764    -0.38600
N521        N  0.96757873  0.37996838  0.21171264    -0.38040
N522        N  0.77792901  0.18305705  0.13600442    -0.38050
C523        C  0.42835844  0.23015459  0.17646326    -0.04710
C524        C  0.41398369  0.18255368  0.17980714    -0.01830
C525        C  0.36611802  0.17143672  0.18652521     0.03160
C526        C  0.33243601  0.20801958  0.18994049    -0.04710
C527        C  0.34709319  0.25566953  0.18706022    -0.01820
C528        C  0.39475011  0.26663677  0.17997524     0.03160
C529        C  0.44817667  0.14497751  0.17483364     0.37810
C530        C  0.31279420  0.29349667  0.19009511     0.37800
C531        C  0.40917456  0.31559529  0.17535451     0.36220
C532        C  0.35184570  0.12241830  0.19073715     0.36220
N533        N  0.42088143  0.35452198  0.17143906    -0.38600
N534        N  0.34047860  0.08329487  0.19410543    -0.38600
N535        N  0.28541035  0.32361841  0.19248822    -0.38040
N536        N  0.47540725  0.11496502  0.17076282    -0.38050
C537        C  0.99405578  0.89821967  0.60317441    -0.04710
C538        C  0.04195715  0.90707466  0.59614735    -0.01830
C539        C  0.07025803  0.92806690  0.62798673     0.03160
C540        C  0.04937557  0.94186054  0.66591614    -0.04710
C541        C  0.00420416  0.92449947  0.67515141    -0.01820
C542        C  0.97655954  0.90256207  0.64371666     0.03160
C543        C  0.06130020  0.89661401  0.55571715     0.37810
C544        C  0.98477607  0.93281314  0.71603062     0.37800
C545        C  0.92949497  0.88622603  0.65269517     0.36220
C546        C  0.11961291  0.93724261  0.62047794     0.36220
N547        N  0.89223888  0.87253649  0.66018064    -0.38600
N548        N  0.15913196  0.94366194  0.61410364    -0.38600
N549        N  0.96917477  0.93960554  0.74850399    -0.38040
N550        N  0.07674754  0.88807434  0.52349201    -0.38050
C551        C  0.94021607  0.07141271  0.33735984    -0.04710
C552        C  0.89075923  0.07289945  0.33686124    -0.01830
C553        C  0.86547093  0.05279236  0.36946979     0.03160
C554        C  0.88955049  0.02992182  0.40283524    -0.04710
C555        C  0.93949247  0.02890932  0.40325699    -0.01820
C556        C  0.96462032  0.05008539  0.37085286     0.03160
C557        C  0.86585653  0.09627733  0.30305622     0.37810
C558        C  0.96539907  0.00455892  0.43576828     0.37800
C559        C  0.01583187  0.04954932  0.37164022     0.36220
C560        C  0.81440698  0.05640366  0.36820337     0.36220
N561        N  0.05665606  0.04920295  0.37214242    -0.38600
N562        N  0.77375360  0.05959874  0.36606786    -0.38600
N563        N  0.98651804  0.98513629  0.46148126    -0.38040
N564        N  0.84610372  0.11495157  0.27611737    -0.38050
C565        C  0.75468878  0.62661554  0.54016121    -0.04710
C566        C  0.75338958  0.61194266  0.58180425    -0.01830
C567        C  0.74368811  0.56432705  0.59108824     0.03160
C568        C  0.73230017  0.53079670  0.55880495    -0.04710
C569        C  0.73796425  0.54467422  0.51710075    -0.01820
C570        C  0.75125749  0.59165209  0.50810346     0.03160
C571        C  0.76242979  0.64554909  0.61565660     0.37810
C572        C  0.72952053  0.51176359  0.48272074     0.37800
C573        C  0.76475147  0.60255533  0.46606073     0.36220
C574        C  0.74648256  0.55043638  0.63437525     0.36220
N575        N  0.77610362  0.61062335  0.43256601    -0.38600
N576        N  0.74880026  0.53978111  0.66893943    -0.38600
N577        N  0.72309225  0.48665131  0.45437714    -0.38040
N578        N  0.77031981  0.67175871  0.64292059    -0.38050
C579        C  0.67547644  0.03916090  0.54254520    -0.04710
C580        C  0.64991405  0.05417348  0.57732986    -0.01830
C581        C  0.64236100  0.10280061  0.58468551     0.03160
C582        C  0.66069330  0.13669582  0.55736176    -0.04710
C583        C  0.68648649  0.12175835  0.52269318    -0.01820
C584        C  0.69394186  0.07317230  0.51534568     0.03160
C585        C  0.63168444  0.01951424  0.60572435     0.37810
C586        C  0.70430024  0.15620574  0.49384911     0.37800
C587        C  0.72214124  0.05849016  0.48049639     0.36220
C588        C  0.61674836  0.11798890  0.62107230     0.36220
N589        N  0.74465547  0.04669832  0.45272082    -0.38600
N590        N  0.59631405  0.13019843  0.65003941    -0.38600
N591        N  0.71850034  0.18356373  0.47077152    -0.38040
N592        N  0.61711305  0.99190199  0.62838242    -0.38050
C593        C  0.79031093  0.85186567  0.78548782    -0.04710
C594        C  0.76847099  0.81416821  0.76277282    -0.01830
C595        C  0.76362135  0.81618156  0.71905630     0.03160
C596        C  0.78157549  0.85519756  0.69726514    -0.04710
C597        C  0.80070414  0.89425706  0.72031011    -0.01820
C598        C  0.80622433  0.89196398  0.76391396     0.03160
C599        C  0.74939492  0.77376697  0.78420015     0.37810
C600        C  0.81487269  0.93727168  0.69976802     0.37800
C601        C  0.83006496  0.93055510  0.78631060     0.36220
C602        C  0.73673666  0.77963770  0.69686027     0.36220
N603        N  0.84911139  0.96137320  0.80397252    -0.38600
N604        N  0.71443244  0.75091005  0.67944671    -0.38600
N605        N  0.82588625  0.97190973  0.68378094    -0.38040
N606        N  0.73424711  0.74141804  0.80114854    -0.38050
C607        C  0.78451791  0.85927849  0.19872699    -0.04710
C608        C  0.80671896  0.89758669  0.22052608    -0.01830
C609        C  0.81486188  0.89529445  0.26385443     0.03160
C610        C  0.79911432  0.85583575  0.28629462    -0.04710
C611        C  0.77531399  0.81842216  0.26481679    -0.01820
C612        C  0.76788928  0.82028847  0.22139960     0.03160
C613        C  0.82247059  0.93919760  0.19875029     0.37810
C614        C  0.75713280  0.77829460  0.28723157     0.37800
C615        C  0.74131693  0.78258861  0.20037593     0.36220
C616        C  0.84145363  0.93289673  0.28503611     0.36220
N617        N  0.72006414  0.75244335  0.18383325    -0.38600
N618        N  0.86290501  0.96277699  0.30174665    -0.38600
N619        N  0.74273864  0.74616750  0.30497662    -0.38040
N620        N  0.83506431  0.97258752  0.18171006    -0.38050
C621        C  0.05069622  0.94752509  0.15849368    -0.04710
C622        C  0.06688693  0.93793522  0.11797535    -0.01830
C623        C  0.03556770  0.91862002  0.08734161     0.03160
C624        C  0.98950861  0.90552180  0.09810500    -0.04710
C625        C  0.97689424  0.90652308  0.14027016    -0.01820
C626        C  0.00696648  0.92838338  0.17026439     0.03160
C627        C  0.11516428  0.94823286  0.10754016     0.37810
C628        C  0.93253520  0.88600130  0.15261769     0.37800
C629        C  0.99191717  0.93342437  0.21293898     0.36220
C630        C  0.04999278  0.91383540  0.04455900     0.36220
N631        N  0.97985205  0.93753850  0.24691879    -0.38600
N632        N  0.06139458  0.91006996  0.01036962    -0.38600
N633        N  0.89760765  0.86865409  0.16250411    -0.38040
N634        N  0.15415575  0.95493143  0.09944420    -0.38050
C635        C  0.87923234  0.02829908  0.90154426    -0.04710
C636        C  0.92758421  0.01812122  0.89677152    -0.01830
C637        C  0.95271761  0.03892599  0.86429604     0.03160
C638        C  0.92946294  0.06904673  0.83597156    -0.04710
C639        C  0.88122563  0.07886868  0.84043439    -0.01820
C640        C  0.85632514  0.05911619  0.87339039     0.03160
C641        C  0.95113839  0.98489938  0.92405003     0.37810
C642        C  0.85714929  0.10952867  0.81116766     0.37800
C643        C  0.80723112  0.07164346  0.87884625     0.36220
C644        C  0.00258278  0.02926298  0.85981563     0.36220
N645        N  0.76820097  0.08210629  0.88306298    -0.38600
N646        N  0.04234982  0.02163433  0.85610909    -0.38600
N647        N  0.83753689  0.13363176  0.78781019    -0.38040
N648        N  0.96993255  0.95829300  0.94573303    -0.38050
C649        C  0.72932782  0.53902371  0.06835033    -0.04710
C650        C  0.76437910  0.55312776  0.04075809    -0.01830
C651        C  0.77095657  0.60155304  0.03255618     0.03160
C652        C  0.74237319  0.63586650  0.05196498    -0.04710
C653        C  0.70927576  0.62208819  0.08131914    -0.01820
C654        C  0.70272409  0.57376745  0.08955208     0.03160
C655        C  0.79297794  0.51775071  0.02027110     0.37810
C656        C  0.68040772  0.65752625  0.10159054     0.37800
C657        C  0.66702528  0.56006214  0.11856914     0.36220
C658        C  0.80640496  0.61610489  0.00348648     0.36220
N659        N  0.63833421  0.55016917  0.14190451    -0.38600
N660        N  0.83440904  0.62804814  0.98017808    -0.38600
N661        N  0.65720653  0.68569290  0.11762732    -0.38040
N662        N  0.81597378  0.48955598  0.00404617    -0.38050
C663        C  0.65447898  0.03206509  0.03808722    -0.04710
C664        C  0.63558459  0.04753770  0.07598170    -0.01830
C665        C  0.62798511  0.09604843  0.08327981     0.03160
C666        C  0.64095799  0.12935439  0.05314807    -0.04710
C667        C  0.65449971  0.11358764  0.01349866    -0.01820
C668        C  0.66095496  0.06489974  0.00574847     0.03160
C669        C  0.62476401  0.01350989  0.10775374     0.37810
C670        C  0.66398728  0.14757593  0.98130921     0.37800
C671        C  0.67661759  0.04936848  0.96517197     0.36220
C672        C  0.60620338  0.11143902  0.12155042     0.36220
N673        N  0.68870914  0.03680011  0.93273308    -0.38600
N674        N  0.58872098  0.12384693  0.15196889    -0.38600
N675        N  0.67148927  0.17458139  0.95557291    -0.38040
N676        N  0.61602455  0.98643881  0.13311017    -0.38050
C677        C  0.35295873  0.45797353  0.95504573    -0.04710
C678        C  0.33399754  0.44775000  0.99433170    -0.01830
C679        C  0.36135005  0.42245592  0.02376547     0.03160
C680        C  0.40813485  0.41013618  0.01467166    -0.04710
C681        C  0.42511330  0.41750694  0.97431879    -0.01820
C682        C  0.39568464  0.43701242  0.94369058     0.03160
C683        C  0.28805090  0.46541121  0.00560822     0.37810
C684        C  0.47472367  0.41283062  0.96576005     0.37800
C685        C  0.41051501  0.43809177  0.90080541     0.36220
C686        C  0.34313010  0.41289005  0.06454219     0.36220
N687        N  0.42179867  0.43817998  0.86647539    -0.38600
N688        N  0.32869938  0.40514152  0.09710871    -0.38600
N689        N  0.51450333  0.41209854  0.95879854    -0.38040
N690        N  0.25133098  0.47936827  0.01475246    -0.38050
C691        C  0.48791219  0.59168752  0.78170342    -0.04710
C692        C  0.50624944  0.54751698  0.79419820    -0.01830
C693        C  0.53237638  0.51970975  0.76612596     0.03160
C694        C  0.54126096  0.53618573  0.72582779    -0.04710
C695        C  0.52943495  0.58275158  0.71564198    -0.01820
C696        C  0.50429430  0.61109941  0.74395669     0.03160
C697        C  0.49876194  0.53041814  0.83576175     0.37810
C698        C  0.54130735  0.60072410  0.67514726     0.37800
C699        C  0.49701613  0.66040774  0.73397241     0.36220
C700        C  0.54903218  0.47346078  0.77836683     0.36220
N701        N  0.49185953  0.69955766  0.72488553    -0.38600
N702        N  0.56232426  0.43668682  0.78849115    -0.38600
N703        N  0.55064860  0.61493119  0.64280256    -0.38040
N704        N  0.49379948  0.51710886  0.86920710    -0.38050
C705        C  0.47802300  0.78819912  0.91165993    -0.04710
C706        C  0.51256777  0.77205868  0.88370882    -0.01830
C707        C  0.56112331  0.77798436  0.89340788     0.03160
C708        C  0.57569346  0.80031012  0.93105119    -0.04710
C709        C  0.54120675  0.81713320  0.95870375    -0.01820
C710        C  0.49269203  0.81064968  0.94921981     0.03160
C711        C  0.49843950  0.74791214  0.84544255     0.37810
C712        C  0.55562615  0.84008457  0.99759890     0.37800
C713        C  0.45763169  0.82670934  0.97836169     0.36220
C714        C  0.59607382  0.76209708  0.86409233     0.36220
N715        N  0.42954108  0.83943849  0.00151273    -0.38600
N716        N  0.62392427  0.74946555  0.84067616    -0.38600
N717        N  0.56709452  0.85840962  0.02862547    -0.38040
N718        N  0.48724631  0.72882666  0.81475672    -0.38050
C719        C  0.06700269  0.70900052  0.92386335    -0.04710
C720        C  0.04606552  0.75014040  0.90669240    -0.01830
C721        C  0.99761154  0.75979333  0.91206935     0.03160
C722        C  0.96981135  0.72964223  0.93603130    -0.04710
C723        C  0.99067548  0.68947758  0.95425930    -0.01820
C724        C  0.03844948  0.67832967  0.94724062     0.03160
C725        C  0.07468352  0.78426082  0.88521801     0.37810
C726        C  0.96296569  0.65966624  0.98089878     0.37800
C727        C  0.05699800  0.63426740  0.96312931     0.36220
C728        C  0.97689597  0.80229372  0.89482766     0.36220
N729        N  0.07105058  0.59882936  0.97592292    -0.38600
N730        N  0.96031190  0.83618981  0.88116656    -0.38600
N731        N  0.94126961  0.63602913  0.00253313    -0.38040
N732        N  0.09702125  0.81216241  0.86841715    -0.38050
C733        C  0.15911552  0.37047636  0.79235350    -0.04710
C734        C  0.14282323  0.39038723  0.82980332    -0.01830
C735        C  0.14631799  0.43950665  0.83754160     0.03160
C736        C  0.16998823  0.46931973  0.80959138    -0.04710
C737        C  0.18538090  0.44968518  0.77157047    -0.01820
C738        C  0.17858375  0.40068783  0.76249550     0.03160
C739        C  0.12259795  0.36014384  0.86087418     0.37810
C740        C  0.20917321  0.47942554  0.74226110     0.37800
C741        C  0.18959889  0.38181473  0.72178969     0.36220
C742        C  0.12415532  0.45937127  0.87412443     0.36220
N743        N  0.19746126  0.36707948  0.68893654    -0.38600
N744        N  0.10635464  0.47502304  0.90326135    -0.38600
N745        N  0.22826020  0.50315738  0.71887295    -0.38040
N746        N  0.10666377  0.33603906  0.88572128    -0.38050
C747        C  0.22900313  0.86948337  0.81684588    -0.04710
C748        C  0.22564373  0.90183224  0.85051788    -0.01830
C749        C  0.22441272  0.95138828  0.84360883     0.03160
C750        C  0.22499781  0.96897982  0.80264536    -0.04710
C751        C  0.23221308  0.93579464  0.76933620    -0.01820
C752        C  0.23260244  0.88671529  0.77638929     0.03160
C753        C  0.22404875  0.88390123  0.89243019     0.37810
C754        C  0.24238027  0.95140287  0.72762469     0.37800
C755        C  0.23747672  0.85356689  0.74172900     0.36220
C756        C  0.22663833  0.98357228  0.87892950     0.36220
N757        N  0.24123616  0.82712278  0.71419017    -0.38600
N758        N  0.23036776  0.00836009  0.90777220    -0.38600
N759        N  0.25067859  0.96340113  0.69433381    -0.38040
N760        N  0.22260548  0.86938625  0.92580156    -0.38050
C761        C  0.28692139  0.64009074  0.66092866    -0.04710
C762        C  0.33196035  0.64117205  0.64292936    -0.01830
C763        C  0.33718844  0.65171533  0.60046600     0.03160
C764        C  0.29694126  0.65483537  0.57350054    -0.04710
C765        C  0.25197563  0.64494567  0.59081938    -0.01820
C766        C  0.24680944  0.64036530  0.63412415     0.03160
C767        C  0.37326237  0.62768155  0.66736182     0.37810
C768        C  0.21041787  0.63588868  0.56468325     0.37800
C769        C  0.19951950  0.63541097  0.64991536     0.36220
C770        C  0.38476170  0.65759583  0.58578412     0.36220
N771        N  0.16109801  0.63132448  0.66084219    -0.38600
N772        N  0.42361325  0.66200709  0.57610989    -0.38600
N773        N  0.17730515  0.62658426  0.54449721    -0.38040
N774        N  0.40632852  0.61552815  0.68588981    -0.38050
C775        C  0.29765193  0.67046767  0.07117220    -0.04710
C776        C  0.33243520  0.64409893  0.09272146    -0.01830
C777        C  0.33191339  0.64161872  0.13638412     0.03160
C778        C  0.29525979  0.66308577  0.15872980    -0.04710
C779        C  0.26064779  0.68972734  0.13723824    -0.01820
C780        C  0.26185845  0.69331978  0.09361663     0.03160
C781        C  0.36727685  0.61704707  0.07014472     0.37810
C782        C  0.22521949  0.71566389  0.16002156     0.37800
C783        C  0.22663201  0.72130145  0.07184145     0.36220
C784        C  0.36932215  0.61674458  0.15814616     0.36220
N785        N  0.19856610  0.74363628  0.05448616    -0.38600
N786        N  0.39997079  0.59739426  0.17484995    -0.38600
N787        N  0.19712052  0.73656876  0.17819500    -0.38040
N788        N  0.39489946  0.59513683  0.05228745    -0.38050
C789        C  0.35424265  0.46884182  0.47128302    -0.04710
C790        C  0.35400541  0.48325908  0.51342410    -0.01830
C791        C  0.38103297  0.45876355  0.54349492     0.03160
C792        C  0.40556998  0.41720945  0.53185412    -0.04710
C793        C  0.39680520  0.39793085  0.49112059    -0.01820
C794        C  0.37422120  0.42521939  0.46045110     0.03160
C795        C  0.32621412  0.52367460  0.52578981     0.37810
C796        C  0.41040259  0.34991870  0.48005292     0.37800
C797        C  0.37319691  0.40886272  0.41747740     0.36220
C798        C  0.38334005  0.47751056  0.58563535     0.36220
N799        N  0.37350345  0.39505214  0.38344969    -0.38600
N800        N  0.38403266  0.49375556  0.61888967    -0.38600
N801        N  0.42089827  0.31166277  0.47092417    -0.38040
N802        N  0.30288559  0.55495080  0.53606855    -0.38050
C803        C  0.47171774  0.56810754  0.27867489    -0.04710
C804        C  0.44715336  0.53909440  0.24934619    -0.01830
C805        C  0.47149434  0.51678625  0.21668979     0.03160
C806        C  0.52084749  0.52270850  0.21377584    -0.04710
C807        C  0.54561091  0.54976383  0.24487744    -0.01820
C808        C  0.52100230  0.57243655  0.27704783     0.03160
C809        C  0.39650230  0.53288520  0.25260896     0.37810
C810        C  0.59642566  0.55585594  0.24330478     0.37800
C811        C  0.54619642  0.60161101  0.30781071     0.36220
C812        C  0.44555716  0.48745014  0.18664615     0.36220
N813        N  0.56626323  0.62480705  0.33238101    -0.38600
N814        N  0.42449612  0.46441684  0.16260954    -0.38600
N815        N  0.63694999  0.56065448  0.24236356    -0.38040
N816        N  0.35611590  0.52819601  0.25529794    -0.38050
C817        C  0.58739661  0.79886123  0.43270481    -0.04710
C818        C  0.55462795  0.80551116  0.46455407    -0.01830
C819        C  0.50604548  0.79830163  0.45631774     0.03160
C820        C  0.48975892  0.78475032  0.41602188    -0.04710
C821        C  0.52301987  0.77713548  0.38428181    -0.01820
C822        C  0.57159531  0.78458258  0.39264051     0.03160
C823        C  0.57116724  0.81849307  0.50619236     0.37810
C824        C  0.50815597  0.75919038  0.34357764     0.37800
C825        C  0.60541259  0.77812855  0.35982491     0.36220
C826        C  0.47276109  0.80416220  0.48960593     0.36220
N827        N  0.63244491  0.77307196  0.33372167    -0.38600
N828        N  0.44622470  0.80859390  0.51618104    -0.38600
N829        N  0.49676321  0.74471968  0.31102817    -0.38040
N830        N  0.58450178  0.82857127  0.53941404    -0.38050
C831        C  0.08153974  0.72554340  0.42287286    -0.04710
C832        C  0.06267576  0.71614774  0.46216403    -0.01830
C833        C  0.01377837  0.71897348  0.46826602     0.03160
C834        C  0.98354302  0.73940175  0.43781552    -0.04710
C835        C  0.00346217  0.75614076  0.40102416    -0.01820
C836        C  0.05182525  0.74836776  0.39309788     0.03160
C837        C  0.09326942  0.70985466  0.49825727     0.37810
C838        C  0.97520872  0.78396393  0.37236961     0.37800
C839        C  0.07087477  0.76706567  0.35528087     0.36220
C840        C  0.99504510  0.70040696  0.50645454     0.36220
N841        N  0.08525354  0.78268705  0.32504056    -0.38600
N842        N  0.98037202  0.68552357  0.53690525    -0.38600
N843        N  0.95311668  0.80669851  0.34960699    -0.38040
N844        N  0.11663980  0.70663914  0.52798325    -0.38050
C845        C  0.17091982  0.37645140  0.28408999    -0.04710
C846        C  0.14653991  0.41256466  0.26208278    -0.01830
C847        C  0.15690504  0.46128044  0.27012760     0.03160
C848        C  0.19325449  0.47448782  0.29863385    -0.04710
C849        C  0.22203563  0.43823664  0.31538024    -0.01820
C850        C  0.20954774  0.39001092  0.31025782     0.03160
C851        C  0.11148701  0.39987339  0.23038753     0.37810
C852        C  0.26597633  0.45054882  0.33673432     0.37800
C853        C  0.23498414  0.35501947  0.33441268     0.36220
C854        C  0.12980574  0.49772992  0.24952117     0.36220
N855        N  0.25497122  0.32734741  0.35415923    -0.38600
N856        N  0.10843182  0.52694083  0.23288312    -0.38600
N857        N  0.30126918  0.46100817  0.35308891    -0.38040
N858        N  0.08382384  0.38988095  0.20472933    -0.38050
C859        C  0.24000957  0.87792461  0.32201408    -0.04710
C860        C  0.19689569  0.89415522  0.30424394    -0.01830
C861        C  0.18590014  0.94284091  0.30464022     0.03160
C862        C  0.21997323  0.97703766  0.31729583    -0.04710
C863        C  0.26283035  0.96157273  0.33531905    -0.01820
C864        C  0.27232744  0.91236934  0.33878124     0.03160
C865        C  0.16573006  0.86220753  0.28091846     0.37810
C866        C  0.29804603  0.99630802  0.34852510     0.37800
C867        C  0.31602856  0.89770260  0.35884239     0.36220
C868        C  0.13911293  0.95798403  0.29139160     0.36220
N869        N  0.35100777  0.88625705  0.37486489    -0.38600
N870        N  0.10156073  0.96991947  0.28157225    -0.38600
N871        N  0.32616464  0.02409468  0.35896535    -0.38040
N872        N  0.14098932  0.83757949  0.26124363    -0.38050
loop_ 
_geom_bond_atom_site_label_1 
_geom_bond_atom_site_label_2 
_geom_bond_distance 
_geom_bond_site_symmetry_2 
_ccdc_geom_bond_type 
C1           N19   1.355       .  A
C1           C38   1.472       .  S
C1          C859   1.513       .  S
N2           N19   1.328       .  A
N2           N24   1.323       .  A
N2          Co39   2.089       .  S
C3           N28   1.329       .  A
C3           C41   1.449       .  S
C3           H48   1.081       .  S
H4           C45   1.077       .  S
C5           N29   1.343       .  A
C5            C9   1.483       .  S
C5           H34   1.075       .  S
Co6          N24   2.125       .  S
Co6          N14   2.074       .  S
Co6          N46   2.069       .  S
Co6          N22   2.150       .  S
Co6         Cl50   2.443       .  S
N7           C45   1.341       .  A
N7           N14   1.313       .  A
N7           Co8   2.082       .  S
Co8          N11   2.066       .  S
Co8          N28   2.059       .  S
Co8          N15   2.089       .  S
Co8         Cl50   2.453       .  S
C9           N47   1.349       .  A
C9          C764   1.518       .  S
N10          N17   1.318       .  A
N10          N40   1.320       .  A
N10         Co43   2.066       .  S
N11          N29   1.318       .  A
N11          N47   1.316       .  A
N12          C41   1.369       .  A
N12          N22   1.339       .  A
H13          C38   1.081       .  S
N14          N35   1.322       .  A
N15          N33   1.316       .  A
N15          N20   1.326       .  A
C16          N20   1.352       .  A
C16          C44   1.455       .  S
C16         C789   1.478       .  S
N17          C32   1.343       .  A
N17         Co39   2.085       .  S
C18          N46   1.340       .  A
C18          C21   1.461       .  S
C18          H52   1.081       .  S
C21          N42   1.347       .  A
C21         C778   1.483       .  S
N22          N28   1.321       .  A
N23          C49   1.332       .  A
N23          N25   1.322       .  A
N23         Co39   2.062       .  S
N24          C38   1.343       .  A
N25          N53   1.329       .  A
N25         Co43   2.108       .  S
H26          C49   1.081       .  S
H27          C44   1.082       .  S
N29         Co43   2.106       .  S
N30          N42   1.324       .  A
N30          N46   1.317       .  A
N30         Co39   2.079       .  S
C31          N35   1.350       .  A
C31          C45   1.477       .  S
C31         C831   1.509       .  S
C32          C51   1.469       .  S
C32          H36   1.082       .  S
N33          C44   1.336       .  A
N33         Co43   2.061       .  S
C37          N53   1.354       .  A
C37          C49   1.444       .  S
C37         C803   1.474       .  S
Co39        Cl50   2.457       .  S
N40          C51   1.345       .  A
C41         C848   1.509       .  S
Co43        Cl50   2.437       .  S
C51         C820   1.488       .  S
C54          N72   1.348       .  A
C54          C91   1.462   1_554  S
C54         C775   1.482       .  S
N55          N72   1.322   1_556  A
N55          N77   1.322       .  A
N55         Co92   2.071       .  S
C56          N81   1.329       .  A
C56          C94   1.455       .  S
C56         H101   1.077       .  S
H57          C98   1.082       .  S
C58          N82   1.348       .  A
C58          C62   1.469       .  S
C58          H87   1.079       .  S
Co59         N77   2.097       .  S
Co59         N67   2.060       .  S
Co59         N99   2.067       .  S
Co59         N75   2.127       .  S
Co59       Cl103   2.441       .  S
N60          C98   1.346       .  A
N60          N67   1.317       .  A
N60         Co61   2.096       .  S
Co61         N64   2.067       .  S
Co61         N81   2.049       .  S
Co61         N68   2.077       .  S
Co61       Cl103   2.444       .  S
C62         N100   1.345       .  A
C62         C747   1.484       .  S
N63          N70   1.317       .  A
N63          N93   1.323       .  A
N63         Co96   2.074       .  S
N64          N82   1.324       .  A
N64         N100   1.321       .  A
N65          C94   1.365       .  A
N65          N75   1.331       .  A
H66          C91   1.082   1_554  S
N67          N88   1.320       .  A
N68          N86   1.314       .  A
N68          N73   1.321       .  A
C69          N73   1.351       .  A
C69          C97   1.472       .  S
C69         C761   1.501       .  S
N70          C85   1.346       .  A
N70         Co92   2.099       .  S
C71          N99   1.333       .  A
C71          C74   1.462       .  S
C71         H105   1.082       .  S
C74          N95   1.348       .  A
C74         C677   1.483       .  S
N75          N81   1.317       .  A
N76         C102   1.327       .  A
N76          N78   1.320       .  A
N76         Co92   2.054       .  S
N77          C91   1.339       .  A
N78         N106   1.337       .  A
N78         Co96   2.137       .  S
H79         C102   1.081       .  S
H80          C97   1.077       .  S
N82         Co96   2.126       .  S
N83          N95   1.325       .  A
N83          N99   1.317       .  A
N83         Co92   2.078       .  S
C84          N88   1.344       .  A
C84          C98   1.472       .  S
C84         C705   1.489       .  S
C85         C104   1.475       .  S
C85          H89   1.081       .  S
N86          C97   1.340       .  A
N86         Co96   2.073       .  S
C90         N106   1.366       .  A
C90         C102   1.444       .  S
C90         C736   1.499       .  S
Co92       Cl103   2.447       .  S
N93         C104   1.349       .  A
C94         C691   1.505       .  S
Co96       Cl103   2.456       .  S
C104        C719   1.503       .  S
C107        N125   1.340       .  A
C107        C144   1.473       .  S
C107        C722   1.486       .  S
N108        N125   1.319       .  A
N108        N130   1.324       .  A
N108       Co145   2.063   1_556  S
C109        N134   1.334       .  A
C109        C147   1.448       .  S
C109        H154   1.082       .  S
H110        C151   1.082       .  S
C111        N135   1.347       .  A
C111        C115   1.471   1_565  S
C111        H140   1.081   1_565  S
Co112       N130   2.126       .  S
Co112       N120   2.087       .  S
Co112       N152   2.077       .  S
Co112       N128   2.126       .  S
Co112      Cl156   2.460       .  S
N113        C151   1.334       .  A
N113        N120   1.316       .  A
N113       Co114   2.064       .  S
Co114       N117   2.061       .  S
Co114       N134   2.058       .  S
Co114       N121   2.059       .  S
Co114      Cl156   2.432       .  S
C115        N153   1.341   1_545  A
C115        C635   1.483       .  S
N116        N123   1.316       .  A
N116        N146   1.324       .  A
N116       Co149   2.084       .  S
N117        N135   1.320       .  A
N117        N153   1.318       .  A
N118        C147   1.360       .  A
N118        N128   1.331       .  A
H119        C144   1.081       .  S
N120        N141   1.327       .  A
N121        N139   1.315   1_556  A
N121        N126   1.321       .  A
C122        N126   1.347   1_554  A
C122        C150   1.462       .  S
C122        C663   1.478   1_565  S
N123        C138   1.340       .  A
N123       Co145   2.075       .  S
C124        N152   1.337       .  A
C124        C127   1.457   1_556  S
C124        H158   1.081       .  S
C127        N148   1.347       .  A
C127        C652   1.472       .  S
N128        N134   1.321       .  A
N129        C155   1.336       .  A
N129        N131   1.320       .  A
N129       Co145   2.075       .  S
N130        C144   1.351       .  A
N131        N159   1.325       .  A
N131       Co149   2.096       .  S
H132        C155   1.081       .  S
H133        C150   1.082       .  S
N135       Co149   2.104   1_556  S
N136        N148   1.323       .  A
N136        N152   1.319   1_554  A
N136       Co145   2.071       .  S
C137        N141   1.356       .  A
C137        C151   1.455       .  S
C137        C593   1.492       .  S
C138        C157   1.458       .  S
C138        H142   1.081       .  S
N139        C150   1.337       .  A
N139       Co149   2.077       .  S
C143        N159   1.354       .  A
C143        C155   1.461       .  S
C143        C607   1.493       .  S
Co145      Cl156   2.434   1_554  S
N146        C157   1.353       .  A
C147        C708   1.488       .  S
Co149      Cl156   2.456   1_554  S
C157        C624   1.481       .  S
C160        N178   1.338       .  A
C160        C197   1.481       .  S
C160        C834   1.494       .  S
N161        N178   1.313       .  A
N161        N183   1.321       .  A
N161       Co198   2.048       .  S
C162        N187   1.335       .  A
C162        C200   1.449       .  S
C162        H207   1.081       .  S
H163        C204   1.082       .  S
C164        N188   1.352       .  A
C164        C168   1.482   1_565  S
C164        H193   1.081   1_565  S
Co165       N183   2.125       .  S
Co165       N173   2.077       .  S
Co165       N205   2.069       .  S
Co165       N181   2.111       .  S
Co165      Cl209   2.449       .  S
N166        C204   1.336       .  A
N166        N173   1.315       .  A
N166       Co167   2.066       .  S
Co167       N170   2.052       .  S
Co167       N187   2.066       .  S
Co167       N174   2.078       .  S
Co167      Cl209   2.436       .  S
C168        N206   1.340   1_545  A
C168        C554   1.496       .  S
N169        N176   1.314       .  A
N169        N199   1.322       .  A
N169       Co202   2.072       .  S
N170        N188   1.320       .  A
N170        N206   1.316       .  A
N171        C200   1.354       .  A
N171        N181   1.327       .  A
H172        C197   1.081       .  S
N173        N194   1.325       .  A
N174        N192   1.314       .  A
N174        N179   1.324       .  A
C175        N179   1.354       .  A
C175        C203   1.453       .  S
C175        C579   1.478   1_565  S
N176        C191   1.337       .  A
N176       Co198   2.061       .  S
C177        N205   1.336       .  A
C177        C180   1.460       .  S
C177        H211   1.080       .  S
C180        N201   1.353       .  A
C180        C565   1.497       .  S
N181        N187   1.323       .  A
N182        C208   1.340       .  A
N182        N184   1.321       .  A
N182       Co198   2.087       .  S
N183        C197   1.353       .  A
N184        N212   1.324       .  A
N184       Co202   2.100       .  S
H185        C208   1.081       .  S
H186        C203   1.082       .  S
N188       Co202   2.122       .  S
N189        N201   1.324       .  A
N189        N205   1.317       .  A
N189       Co198   2.076       .  S
C190        N194   1.354       .  A
C190        C204   1.455       .  S
C190        C610   1.488       .  S
C191        C210   1.453       .  S
C191        H195   1.081       .  S
N192        C203   1.334       .  A
N192       Co202   2.058       .  S
C196        N212   1.352       .  A
C196        C208   1.468       .  S
C196        C596   1.498       .  S
Co198      Cl209   2.440       .  S
N199        C210   1.353       .  A
C200        C817   1.477       .  S
Co202      Cl209   2.442       .  S
C210        C537   1.470       .  S
C213        N231   1.339       .  A
C213        C250   1.476       .  S
C213        C806   1.488       .  S
N214        N231   1.316       .  A
N214        N236   1.319       .  A
N214       Co251   2.046       .  S
C215        N240   1.333   1_556  A
C215        C253   1.449       .  S
C215        H260   1.082       .  S
H216        C257   1.081       .  S
C217        N241   1.350       .  A
C217        C221   1.471       .  S
C217        H246   1.081       .  S
Co218       N236   2.115       .  S
Co218       N226   2.061       .  S
Co218       N258   2.067       .  S
Co218       N234   2.125       .  S
Co218      Cl262   2.442       .  S
N219        C257   1.343       .  A
N219        N226   1.314       .  A
N219       Co220   2.082       .  S
Co220       N223   2.054       .  S
Co220       N240   2.056       .  S
Co220       N227   2.071       .  S
Co220      Cl262   2.441       .  S
C221        N259   1.339       .  A
C221        C523   1.478       .  S
N222        N229   1.317       .  A
N222        N252   1.326       .  A
N222       Co255   2.070       .  S
N223        N241   1.323       .  A
N223        N259   1.318       .  A
N224        C253   1.359       .  A
N224        N234   1.330   1_556  A
H225        C250   1.081       .  S
N226        N247   1.320       .  A
N227        N245   1.319       .  A
N227        N232   1.323       .  A
C228        N232   1.347       .  A
C228        C256   1.457       .  S
C228        C666   1.475       .  S
N229        C244   1.338       .  A
N229       Co251   2.079       .  S
C230        N258   1.335       .  A
C230        C233   1.457       .  S
C230        H264   1.082       .  S
C233        N254   1.353       .  A
C233        C649   1.479       .  S
N234        N240   1.321       .  A
N235        C261   1.334       .  A
N235        N237   1.319       .  A
N235       Co251   2.062       .  S
N236        C250   1.350       .  A
N237        N265   1.328       .  A
N237       Co255   2.123       .  S
H238        C261   1.078       .  S
H239        C256   1.081       .  S
N241       Co255   2.123       .  S
N242        N254   1.325       .  A
N242        N258   1.316       .  A
N242       Co251   2.079       .  S
C243        N247   1.348       .  A
C243        C257   1.466       .  S
C243        C680   1.478       .  S
C244        C263   1.452       .  S
C244        H248   1.081       .  S
N245        C256   1.334       .  A
N245       Co255   2.068       .  S
C249        N265   1.362       .  A
C249        C261   1.462       .  S
C249        C509   1.509       .  S
Co251      Cl262   2.438       .  S
N252        C263   1.350       .  A
C253        C481   1.485       .  S
Co255      Cl262   2.453       .  S
C263        C495   1.475       .  S
C266        N284   1.344       .  A
C266        C303   1.465       .  S
C266        C694   1.480       .  S
N267        N284   1.320       .  A
N267        N289   1.317       .  A
N267       Co304   2.060       .  S
C268        N293   1.336       .  A
C268        C306   1.454       .  S
C268        H313   1.082       .  S
H269        C310   1.078       .  S
C270        N294   1.340       .  A
C270        C274   1.465       .  S
C270        H299   1.081       .  S
Co271       N289   2.090       .  S
Co271       N279   2.062       .  S
Co271       N311   2.059       .  S
Co271       N287   2.091       .  S
Co271      Cl315   2.446       .  S
N272        C310   1.347       .  A
N272        N279   1.319       .  A
N272       Co273   2.109       .  S
Co273       N276   2.074       .  S
Co273       N293   2.064       .  S
Co273       N280   2.115       .  S
Co273      Cl315   2.451       .  S
C274        N312   1.351       .  A
C274        C498   1.498       .  S
N275        N282   1.317       .  A
N275        N305   1.313       .  A
N275       Co308   2.036       .  S
N276        N294   1.317       .  A
N276        N312   1.324       .  A
N277        C306   1.351       .  A
N277        N287   1.326       .  A
H278        C303   1.081       .  S
N279        N300   1.315       .  A
N280        N298   1.322       .  A
N280        N285   1.328       .  A
C281        N285   1.356       .  A
C281        C309   1.445       .  S
C281        C582   1.476       .  S
N282        C297   1.349       .  A
N282       Co304   2.122       .  S
C283        N311   1.334       .  A
C283        C286   1.467       .  S
C283        H317   1.077       .  S
C286        N307   1.358       .  A
C286        C484   1.510       .  S
N287        N293   1.319       .  A
N288        C314   1.332       .  A
N288        N290   1.315       .  A
N288       Co304   2.057       .  S
N289        C303   1.345       .  A
N290        N318   1.328       .  A
N290       Co308   2.091       .  S
H291        C314   1.082       .  S
H292        C309   1.082       .  S
N294       Co308   2.085       .  S
N295        N307   1.324       .  A
N295        N311   1.316       .  A
N295       Co304   2.105       .  S
C296        N300   1.345       .  A
C296        C310   1.481       .  S
C296        C568   1.504       .  S
C297        C316   1.484       .  S
C297        H301   1.077       .  S
N298        C309   1.330       .  A
N298       Co308   2.048       .  S
C302        N318   1.356       .  A
C302        C314   1.458       .  S
C302        C470   1.494       .  S
Co304      Cl315   2.425       .  S
N305        C316   1.342       .  A
C306        C456   1.480       .  S
Co308      Cl315   2.452       .  S
C316        C792   1.503       .  S
C319        N337   1.340       .  A
C319        C356   1.481       .  S
C319        C862   1.496   1_545  S
N320        N337   1.317       .  A
N320        N342   1.324       .  A
N320       Co357   2.061       .  S
C321        N346   1.343       .  A
C321        C359   1.465       .  S
C321        H366   1.081       .  S
H322        C363   1.081       .  S
C323        N347   1.349   1_655  A
C323        C327   1.468       .  S
C323        H352   1.081       .  S
Co324       N342   2.145       .  S
Co324       N332   2.086       .  S
Co324       N364   2.070       .  S
Co324       N340   2.135       .  S
Co324      Cl368   2.444       .  S
N325        C363   1.338       .  A
N325        N332   1.316       .  A
N325       Co326   2.073       .  S
Co326       N329   2.053       .  S
Co326       N346   2.088       .  S
Co326       N333   2.090       .  S
Co326      Cl368   2.464       .  S
C327        N365   1.339       .  A
C327        C551   1.478       .  S
N328        N335   1.315       .  A
N328        N358   1.318       .  A
N328       Co361   2.056       .  S
N329        N347   1.321       .  A
N329        N365   1.319   1_455  A
N330        C359   1.360       .  A
N330        N340   1.329       .  A
H331        C356   1.080       .  S
N332        N353   1.328       .  A
N333        N351   1.316       .  A
N333        N338   1.327   1_455  A
C334        N338   1.357       .  A
C334        C362   1.457       .  S
C334        C512   1.498       .  S
N335        C350   1.347       .  A
N335       Co357   2.093       .  S
C336        N364   1.336       .  A
C336        C339   1.451       .  S
C336        H370   1.082       .  S
C339        N360   1.354       .  A
C339        C526   1.484       .  S
N340        N346   1.324       .  A
N341        C367   1.340       .  A
N341        N343   1.323       .  A
N341       Co357   2.080       .  S
N342        C356   1.358       .  A
N343        N371   1.325       .  A
N343       Co361   2.104       .  S
H344        C367   1.081       .  S
H345        C362   1.081       .  S
N347       Co361   2.118       .  S
N348        N360   1.328       .  A
N348        N364   1.319       .  A
N348       Co357   2.092       .  S
C349        N353   1.355       .  A
C349        C363   1.455       .  S
C349        C425   1.493       .  S
C350        C369   1.471   1_545  S
C350        H354   1.081   1_545  S
N351        C362   1.334   1_455  A
N351       Co361   2.060       .  S
C355        N371   1.352       .  A
C355        C367   1.460       .  S
C355        C442   1.487       .  S
Co357      Cl368   2.466       .  S
N358        C369   1.345   1_545  A
C359        C845   1.511       .  S
Co361      Cl368   2.423       .  S
C369        C621   1.486       .  S
C372        N390   1.336       .  A
C372        C409   1.497       .  S
C372        C750   1.514   1_545  S
N373        N390   1.310       .  A
N373        N395   1.318       .  A
N373       Co410   2.045       .  S
C374        N399   1.335       .  A
C374        C412   1.451       .  S
C374        H419   1.081       .  S
H375        C416   1.081       .  S
C376        N400   1.347   1_655  A
C376        C380   1.465       .  S
C376        H405   1.081       .  S
Co377       N395   2.144       .  S
Co377       N385   2.095       .  S
Co377       N417   2.088       .  S
Co377       N393   2.139       .  S
Co377      Cl421   2.464       .  S
N378        C416   1.338       .  A
N378        N385   1.318       .  A
N378       Co379   2.071       .  S
Co379       N382   2.062       .  S
Co379       N399   2.068       .  S
Co379       N386   2.077       .  S
Co379      Cl421   2.434       .  S
C380        N418   1.341       .  A
C380        C638   1.475       .  S
N381        N388   1.313       .  A
N381        N411   1.318       .  A
N381       Co414   2.063       .  S
N382        N400   1.321       .  A
N382        N418   1.320   1_455  A
N383        C412   1.362       .  A
N383        N393   1.333       .  A
H384        C409   1.079       .  S
N385        N406   1.328       .  A
N386        N404   1.317       .  A
N386        N391   1.324   1_455  A
C387        N391   1.351       .  A
C387        C415   1.459       .  S
C387        C453   1.481       .  S
N388        C403   1.339       .  A
N388       Co410   2.064       .  S
C389        N417   1.338       .  A
C389        C392   1.461       .  S
C389        H423   1.082       .  S
C392        N413   1.348       .  A
C392        C467   1.487       .  S
N393        N399   1.323       .  A
N394        C420   1.337       .  A
N394        N396   1.321       .  A
N394       Co410   2.071       .  S
N395        C409   1.361       .  A
N396        N424   1.327       .  A
N396       Co414   2.107       .  S
H397        C420   1.081       .  S
H398        C415   1.082       .  S
N400       Co414   2.106       .  S
N401        N413   1.325       .  A
N401        N417   1.319       .  A
N401       Co410   2.067       .  S
C402        N406   1.355       .  A
C402        C416   1.452       .  S
C402        C439   1.488       .  S
C403        C422   1.459   1_545  S
C403        H407   1.080   1_545  S
N404        C415   1.338   1_455  A
N404       Co414   2.073       .  S
C408        N424   1.355       .  A
C408        C420   1.457       .  S
C408        C428   1.491       .  S
Co410      Cl421   2.433       .  S
N411        C422   1.351   1_545  A
C412        C733   1.493       .  S
Co414      Cl421   2.455       .  S
C422        C540   1.477       .  S
C425        C426   1.419       .  A
C425        C430   1.413       .  A
C426        C427   1.413       .  A
C426        C431   1.451       .  S
C427        C428   1.410       .  A
C427        C434   1.452       .  S
C428        C429   1.417       .  A
C429        C430   1.413       .  A
C429        C432   1.452       .  S
C430        C433   1.452       .  S
C431        N438   1.158       .  T
C432        N437   1.158       .  T
C433        N435   1.157       .  T
C434        N436   1.157       .  T
C439        C440   1.416       .  A
C439        C444   1.408       .  A
C440        C441   1.412   1_556  A
C440        C445   1.449       .  S
C441        C442   1.411       .  A
C441        C448   1.452       .  S
C442        C443   1.415       .  A
C443        C444   1.411   1_554  A
C443        C446   1.447       .  S
C444        C447   1.449       .  S
C445        N452   1.157       .  T
C446        N451   1.156       .  T
C447        N449   1.156       .  T
C448        N450   1.157       .  T
C453        C454   1.416       .  A
C453        C458   1.408       .  A
C454        C455   1.410       .  A
C454        C459   1.451       .  S
C455        C456   1.409       .  A
C455        C462   1.451       .  S
C456        C457   1.415       .  A
C457        C458   1.410       .  A
C457        C460   1.451       .  S
C458        C461   1.451       .  S
C459        N466   1.157       .  T
C460        N465   1.157       .  T
C461        N463   1.157       .  T
C462        N464   1.157       .  T
C467        C468   1.418       .  A
C467        C472   1.408       .  A
C468        C469   1.417       .  A
C468        C473   1.450       .  S
C469        C470   1.411       .  A
C469        C476   1.450       .  S
C470        C471   1.421       .  A
C471        C472   1.405       .  A
C471        C474   1.452       .  S
C472        C475   1.452       .  S
C473        N480   1.157       .  T
C474        N479   1.157       .  T
C475        N477   1.156       .  T
C476        N478   1.157       .  T
C481        C482   1.405       .  A
C481        C486   1.413       .  A
C482        C483   1.414       .  A
C482        C487   1.452       .  S
C483        C484   1.426       .  A
C483        C490   1.449       .  S
C484        C485   1.424       .  A
C485        C486   1.411       .  A
C485        C488   1.453       .  S
C486        C489   1.453       .  S
C487        N494   1.157       .  T
C488        N493   1.158       .  T
C489        N491   1.158       .  T
C490        N492   1.158       .  T
C495        C496   1.406       .  A
C495        C500   1.408       .  A
C496        C497   1.411       .  A
C496        C501   1.452       .  S
C497        C498   1.419       .  A
C497        C504   1.449       .  S
C498        C499   1.422       .  A
C499        C500   1.411       .  A
C499        C502   1.451       .  S
C500        C503   1.453       .  S
C501        N508   1.157       .  T
C502        N507   1.158       .  T
C503        N505   1.158       .  T
C504        N506   1.157       .  T
C509        C510   1.418       .  A
C509        C514   1.427       .  A
C510        C511   1.413       .  A
C510        C515   1.452       .  S
C511        C512   1.421       .  A
C511        C518   1.453       .  S
C512        C513   1.407       .  A
C513        C514   1.415       .  A
C513        C516   1.453       .  S
C514        C517   1.449       .  S
C515        N522   1.157       .  T
C516        N521   1.157       .  T
C517        N519   1.158       .  T
C518        N520   1.158       .  T
C523        C524   1.410       .  A
C523        C528   1.412       .  A
C524        C525   1.414       .  A
C524        C529   1.450       .  S
C525        C526   1.415       .  A
C525        C532   1.450       .  S
C526        C527   1.412       .  A
C527        C528   1.409       .  A
C527        C530   1.452       .  S
C528        C531   1.451       .  S
C529        N536   1.157       .  T
C530        N535   1.157       .  T
C531        N533   1.157       .  T
C532        N534   1.157       .  T
C537        C538   1.404   1_655  A
C537        C542   1.410       .  A
C538        C539   1.410       .  A
C538        C543   1.450       .  S
C539        C540   1.419       .  A
C539        C546   1.448       .  S
C540        C541   1.409       .  A
C541        C542   1.401   1_455  A
C541        C544   1.454   1_455  S
C542        C545   1.447       .  S
C543        N550   1.157       .  T
C544        N549   1.158       .  T
C545        N547   1.155       .  T
C546        N548   1.158       .  T
C551        C552   1.403       .  A
C551        C556   1.413       .  A
C552        C553   1.409       .  A
C552        C557   1.453       .  S
C553        C554   1.425       .  A
C553        C560   1.452       .  S
C554        C555   1.416       .  A
C555        C556   1.415       .  A
C555        C558   1.450       .  S
C556        C559   1.452   1_655  S
C557        N564   1.157       .  T
C558        N563   1.158   1_545  T
C559        N561   1.157       .  T
C560        N562   1.157       .  T
C565        C566   1.410       .  A
C565        C570   1.419       .  A
C566        C567   1.410       .  A
C566        C571   1.452       .  S
C567        C568   1.426       .  A
C567        C574   1.454       .  S
C568        C569   1.417       .  A
C569        C570   1.414       .  A
C569        C572   1.450       .  S
C570        C573   1.452       .  S
C571        N578   1.157       .  T
C572        N577   1.158       .  T
C573        N575   1.158       .  T
C574        N576   1.158       .  T
C579        C580   1.408       .  A
C579        C584   1.416       .  A
C580        C581   1.409       .  A
C580        C585   1.451       .  S
C581        C582   1.415       .  A
C581        C588   1.452       .  S
C582        C583   1.408       .  A
C583        C584   1.407       .  A
C583        C586   1.452       .  S
C584        C587   1.448       .  S
C585        N592   1.157   1_545  T
C586        N591   1.157       .  T
C587        N589   1.156       .  T
C588        N590   1.157       .  T
C593        C594   1.415       .  A
C593        C598   1.415       .  A
C594        C595   1.413       .  A
C594        C599   1.451       .  S
C595        C596   1.415       .  A
C595        C602   1.450       .  S
C596        C597   1.419       .  A
C597        C598   1.411       .  A
C597        C600   1.452       .  S
C598        C601   1.454       .  S
C599        N606   1.157       .  T
C600        N605   1.158       .  T
C601        N603   1.158       .  T
C602        N604   1.157       .  T
C607        C608   1.418       .  A
C607        C612   1.416       .  A
C608        C609   1.411       .  A
C608        C613   1.452       .  S
C609        C610   1.414       .  A
C609        C616   1.453       .  S
C610        C611   1.415       .  A
C611        C612   1.411       .  A
C611        C614   1.452       .  S
C612        C615   1.452       .  S
C613        N620   1.158       .  T
C614        N619   1.158       .  T
C615        N617   1.157       .  T
C616        N618   1.157       .  T
C621        C622   1.415       .  A
C621        C626   1.412       .  A
C622        C623   1.414       .  A
C622        C627   1.446       .  S
C623        C624   1.408   1_455  A
C623        C630   1.450       .  S
C624        C625   1.411       .  A
C625        C626   1.408   1_655  A
C625        C628   1.449       .  S
C626        C629   1.452   1_455  S
C627        N634   1.157       .  T
C628        N633   1.156       .  T
C629        N631   1.157       .  T
C630        N632   1.157       .  T
C635        C636   1.413       .  A
C635        C640   1.416       .  A
C636        C637   1.412       .  A
C636        C641   1.450   1_545  S
C637        C638   1.412       .  A
C637        C644   1.451   1_655  S
C638        C639   1.407       .  A
C639        C640   1.408       .  A
C639        C642   1.451       .  S
C640        C643   1.452       .  S
C641        N648   1.157       .  T
C642        N647   1.157       .  T
C643        N645   1.157       .  T
C644        N646   1.157       .  T
C649        C650   1.408       .  A
C649        C654   1.417       .  A
C650        C651   1.410       .  A
C650        C655   1.450       .  S
C651        C652   1.413       .  A
C651        C658   1.451       .  S
C652        C653   1.404       .  A
C653        C654   1.407       .  A
C653        C656   1.452       .  S
C654        C657   1.448       .  S
C655        N662   1.157       .  T
C656        N661   1.157       .  T
C657        N659   1.156       .  T
C658        N660   1.157   1_554  T
C663        C664   1.407       .  A
C663        C668   1.419       .  A
C664        C665   1.405       .  A
C664        C669   1.451       .  S
C665        C666   1.415       .  A
C665        C672   1.452       .  S
C666        C667   1.407       .  A
C667        C668   1.408       .  A
C667        C670   1.452   1_554  S
C668        C671   1.451   1_554  S
C669        N676   1.157   1_545  T
C670        N675   1.157       .  T
C671        N673   1.157       .  T
C672        N674   1.157       .  T
C677        C678   1.418       .  A
C677        C682   1.404       .  A
C678        C679   1.415   1_556  A
C678        C683   1.449   1_556  S
C679        C680   1.409       .  A
C679        C686   1.450       .  S
C680        C681   1.413   1_554  A
C681        C682   1.399       .  A
C681        C684   1.446       .  S
C682        C685   1.453       .  S
C683        N690   1.157       .  T
C684        N689   1.155       .  T
C685        N687   1.157       .  T
C686        N688   1.157       .  T
C691        C692   1.415       .  A
C691        C696   1.427       .  A
C692        C693   1.413       .  A
C692        C697   1.449       .  S
C693        C694   1.412       .  A
C693        C700   1.449       .  S
C694        C695   1.401       .  A
C695        C696   1.411       .  A
C695        C698   1.452       .  S
C696        C699   1.449       .  S
C697        N704   1.157       .  T
C698        N703   1.157       .  T
C699        N701   1.158       .  T
C700        N702   1.156       .  T
C705        C706   1.417       .  A
C705        C710   1.410       .  A
C706        C707   1.414       .  A
C706        C711   1.447       .  S
C707        C708   1.410       .  A
C707        C714   1.451       .  S
C708        C709   1.416       .  A
C709        C710   1.413       .  A
C709        C712   1.451       .  S
C710        C713   1.451       .  S
C711        N718   1.156       .  T
C712        N717   1.157   1_556  T
C713        N715   1.157   1_556  T
C714        N716   1.157       .  T
C719        C720   1.422       .  A
C719        C724   1.419       .  A
C720        C721   1.416   1_455  A
C720        C725   1.451       .  S
C721        C722   1.408       .  A
C721        C728   1.452       .  S
C722        C723   1.412       .  A
C723        C724   1.414   1_655  A
C723        C726   1.452       .  S
C724        C727   1.450       .  S
C725        N732   1.157       .  T
C726        N731   1.157   1_556  T
C727        N729   1.158       .  T
C728        N730   1.157       .  T
C733        C734   1.410       .  A
C733        C738   1.415       .  A
C734        C735   1.409       .  A
C734        C739   1.451       .  S
C735        C736   1.419       .  A
C735        C742   1.453       .  S
C736        C737   1.414       .  A
C737        C738   1.422       .  A
C737        C740   1.449       .  S
C738        C741   1.448       .  S
C739        N746   1.157       .  T
C740        N745   1.157       .  T
C741        N743   1.157       .  T
C742        N744   1.158       .  T
C747        C748   1.412       .  A
C747        C752   1.403       .  A
C748        C749   1.422       .  A
C748        C753   1.450       .  S
C749        C750   1.417       .  A
C749        C756   1.445       .  S
C750        C751   1.432       .  A
C751        C752   1.409       .  A
C751        C754   1.454       .  S
C752        C755   1.455       .  S
C753        N760   1.157       .  T
C754        N759   1.158       .  T
C755        N757   1.157       .  T
C756        N758   1.157   1_565  T
C761        C762   1.414       .  A
C761        C766   1.413       .  A
C762        C763   1.414       .  A
C762        C767   1.452       .  S
C763        C764   1.422       .  A
C763        C770   1.449       .  S
C764        C765   1.431       .  A
C765        C766   1.413       .  A
C765        C768   1.452       .  S
C766        C769   1.451       .  S
C767        N774   1.156       .  T
C768        N773   1.157       .  T
C769        N771   1.158       .  T
C770        N772   1.158       .  T
C775        C776   1.415       .  A
C775        C780   1.412       .  A
C776        C777   1.409       .  A
C776        C781   1.452       .  S
C777        C778   1.411       .  A
C777        C784   1.449       .  S
C778        C779   1.415       .  A
C779        C780   1.411       .  A
C779        C782   1.451       .  S
C780        C783   1.452       .  S
C781        N788   1.158       .  T
C782        N787   1.157       .  T
C783        N785   1.157       .  T
C784        N786   1.156       .  T
C789        C790   1.410       .  A
C789        C794   1.401       .  A
C790        C791   1.413       .  A
C790        C795   1.446       .  S
C791        C792   1.417       .  A
C791        C798   1.449       .  S
C792        C793   1.428       .  A
C793        C794   1.407       .  A
C793        C796   1.453       .  S
C794        C797   1.451       .  S
C795        N802   1.155       .  T
C796        N801   1.158       .  T
C797        N799   1.157       .  T
C798        N800   1.158       .  T
C803        C804   1.411       .  A
C803        C808   1.404       .  A
C804        C805   1.412       .  A
C804        C809   1.452       .  S
C805        C806   1.414       .  A
C805        C812   1.450       .  S
C806        C807   1.421       .  A
C807        C808   1.409       .  A
C807        C810   1.452       .  S
C808        C811   1.452       .  S
C809        N816   1.157       .  T
C810        N815   1.157       .  T
C811        N813   1.157       .  T
C812        N814   1.157       .  T
C817        C818   1.410       .  A
C817        C822   1.408       .  A
C818        C819   1.410       .  A
C818        C823   1.451       .  S
C819        C820   1.414       .  A
C819        C826   1.451       .  S
C820        C821   1.420       .  A
C821        C822   1.412       .  A
C821        C824   1.451       .  S
C822        C825   1.452       .  S
C823        N830   1.157       .  T
C824        N829   1.158       .  T
C825        N827   1.157       .  T
C826        N828   1.157       .  T
C831        C832   1.412       .  A
C831        C836   1.426       .  A
C832        C833   1.407       .  A
C832        C837   1.448       .  S
C833        C834   1.419   1_455  A
C833        C840   1.454   1_455  S
C834        C835   1.411   1_655  A
C835        C836   1.418       .  A
C835        C838   1.451   1_455  S
C836        C839   1.449       .  S
C837        N844   1.157       .  T
C838        N843   1.158       .  T
C839        N841   1.157       .  T
C840        N842   1.158       .  T
C845        C846   1.424       .  A
C845        C850   1.415       .  A
C846        C847   1.425       .  A
C846        C851   1.449       .  S
C847        C848   1.410       .  A
C847        C854   1.448       .  S
C848        C849   1.418       .  A
C849        C850   1.413       .  A
C849        C852   1.448       .  S
C850        C853   1.452       .  S
C851        N858   1.157       .  T
C852        N857   1.156       .  T
C853        N855   1.158       .  T
C854        N856   1.157       .  T
C859        C860   1.419       .  A
C859        C864   1.425       .  A
C860        C861   1.412       .  A
C860        C865   1.450       .  S
C861        C862   1.412       .  A
C861        C868   1.453       .  S
C862        C863   1.409       .  A
C863        C864   1.423       .  A
C863        C866   1.449       .  S
C864        C867   1.450       .  S
C865        N872   1.157       .  T
C866        N871   1.157   1_565  T
C867        N869   1.157       .  T
C868        N870   1.157       .  T
