geometry optimzed in LAMMPS
_audit_creation_date              2020-11-30 
_audit_creation_method            'lammps2cif' 
_symmetry_space_group_name_H-M    'P1' 
_symmetry_Int_Tables_number       1 
_symmetry_cell_setting            triclinic 
loop_ 
_symmetry_equiv_pos_as_xyz 
  x,y,z 
_cell_length_a                    39.56533128 
_cell_length_b                    39.68502122863582 
_cell_length_c                    26.18422655064838 
_cell_angle_alpha                 90.0287026167597 
_cell_angle_beta                  90.08666602064775 
_cell_angle_gamma                 89.23385977904 
loop_ 
_atom_site_label 
_atom_site_type_symbol 
_atom_site_fract_x 
_atom_site_fract_y 
_atom_site_fract_z 
_atom_site_charge 
N1          N  0.72189020  0.72162857  0.69746637    -0.36300
N2          N  0.71478983  0.78728224  0.74722764    -0.56800
N3          N  0.77629519  0.77505477  0.80487348    -0.36200
N4          N  0.78567919  0.71167392  0.75168956    -0.56800
C5          C  0.69799291  0.73630612  0.66750526     0.27300
C6          C  0.73531617  0.69535600  0.67110089     0.27300
C7          C  0.76993843  0.80756080  0.81734991     0.27300
C8          C  0.80898021  0.76832290  0.81670220     0.27300
C9          C  0.68454721  0.78542450  0.72341595     0.36000
C10         C  0.71168732  0.81221104  0.78222700     0.36000
C11         C  0.78167665  0.68058747  0.73172636     0.36000
C12         C  0.81117570  0.70905840  0.78595540     0.36000
C13         C  0.69571447  0.71876164  0.62183402    -0.21500
C14         C  0.71930882  0.69289111  0.62409146    -0.21500
C15         C  0.79879270  0.82168344  0.83785654    -0.21500
C16         C  0.82354741  0.79689627  0.83724404    -0.21500
C17         C  0.66233053  0.80944321  0.74302935    -0.22600
C18         C  0.67945728  0.82629585  0.78041578    -0.22600
C19         C  0.80464005  0.65813154  0.75357370    -0.22600
C20         C  0.82339079  0.67618246  0.78780259    -0.22600
C21         C  0.67743463  0.76430717  0.68137126    -0.17900
C22         C  0.76113082  0.67327391  0.68902604    -0.17900
C23         C  0.82495241  0.73632328  0.81334678    -0.17900
C24         C  0.73814711  0.82394370  0.81355671    -0.17900
H25         H  0.67886107  0.72407037  0.59015994     0.15000
H26         H  0.72417449  0.67446374  0.59442245     0.15000
H27         H  0.80161706  0.84711740  0.85203273     0.15000
H28         H  0.84917375  0.79943086  0.85110543     0.15000
H29         H  0.63648605  0.81445653  0.73139435     0.13300
H30         H  0.66941185  0.84688614  0.80314216     0.13300
H31         H  0.80821233  0.63169980  0.74456344     0.13300
H32         H  0.84404171  0.66632083  0.81073620     0.13300
H33         H  0.72669365  0.72737369  0.73553745     0.26500
H34         H  0.75817708  0.75746069  0.79513718     0.26500
N35         N  0.77595565  0.21847144  0.79939698    -0.36300
N36         N  0.71023777  0.21251312  0.75107957    -0.56800
N37         N  0.71767098  0.27745074  0.70108632    -0.36200
N38         N  0.78128037  0.28546384  0.75141149    -0.56800
C39         C  0.76266706  0.19302291  0.82704809     0.27300
C40         C  0.80084817  0.23235600  0.82755402     0.27300
C41         C  0.68492480  0.27126803  0.69085517     0.27300
C42         C  0.72327317  0.31020525  0.69026162     0.27300
C43         C  0.71555461  0.18071377  0.76803666     0.36000
C44         C  0.68555289  0.21076404  0.71550212     0.36000
C45         C  0.81279965  0.28071981  0.77020061     0.36000
C46         C  0.78333222  0.31073096  0.71684631     0.36000
C47         C  0.77995752  0.19014499  0.87301062    -0.21500
C48         C  0.80416268  0.21493076  0.87324045    -0.21500
C49         C  0.66921107  0.30058452  0.67354787    -0.21500
C50         C  0.69355235  0.32523897  0.67302015    -0.21500
C51         C  0.69430302  0.15866230  0.74298607    -0.22600
C52         C  0.67530371  0.17768661  0.70963649    -0.22600
C53         C  0.83486442  0.30313188  0.74781479    -0.22600
C54         C  0.81625487  0.32208544  0.71397726    -0.22600
C55         C  0.73573259  0.17230096  0.81086208    -0.17900
C56         C  0.82109485  0.25967923  0.81197957    -0.17900
C57         C  0.75547219  0.32515534  0.69034577    -0.17900
C58         C  0.67049825  0.23891633  0.69093124    -0.17900
H59         H  0.77551111  0.17229349  0.90341016     0.15000
H60         H  0.82198199  0.21971827  0.90371078     0.15000
H61         H  0.64327295  0.30355628  0.66094347     0.15000
H62         H  0.69002177  0.35094321  0.66008622     0.15000
H63         H  0.69213489  0.13181013  0.74917437     0.13300
H64         H  0.65571782  0.16830523  0.68469529     0.13300
H65         H  0.86150347  0.30600456  0.75593127     0.13300
H66         H  0.82582127  0.34244213  0.69089829     0.13300
H67         H  0.77010245  0.22451905  0.76166940     0.26500
H68         H  0.73619331  0.25908689  0.70721465     0.26500
N69         N  0.21176297  0.28469314  0.74626773    -0.36300
N70         N  0.21694144  0.21821615  0.79409604    -0.56800
N71         N  0.28295782  0.21100210  0.74673037    -0.36200
N72         N  0.27650273  0.27592001  0.69772542    -0.56800
C73         C  0.17990677  0.28024495  0.76347354     0.27300
C74         C  0.21054025  0.31047011  0.71235324     0.27300
C75         C  0.27740110  0.17968172  0.76494049     0.27300
C76         C  0.30692385  0.20794414  0.71010725     0.27300
C77         C  0.19038285  0.23104874  0.82029596     0.36000
C78         C  0.22951308  0.19249436  0.82240631     0.36000
C79         C  0.27014277  0.30774230  0.68203014     0.36000
C80         C  0.30769415  0.26760369  0.68083023     0.36000
C81         C  0.15827717  0.30348285  0.74053822    -0.21500
C82         C  0.17757217  0.32261054  0.70846994    -0.21500
C83         C  0.29788566  0.15649289  0.73985568    -0.21500
C84         C  0.31653097  0.17428572  0.70521781    -0.21500
C85         C  0.18550109  0.21289468  0.86485075    -0.22600
C86         C  0.21049563  0.18849977  0.86633327    -0.22600
C87         C  0.29754338  0.31984387  0.65503135    -0.22600
C88         C  0.32137710  0.29436437  0.65426365    -0.22600
C89         C  0.17056784  0.25888417  0.80412498    -0.17900
C90         C  0.23842197  0.32415259  0.68592813    -0.17900
C91         C  0.32193758  0.23489997  0.68342042    -0.17900
C92         C  0.25733851  0.17217451  0.80776184    -0.17900
H93         H  0.13146298  0.30688226  0.74731800     0.15000
H94         H  0.16832398  0.34343418  0.68547987     0.15000
H95         H  0.29973414  0.12963258  0.74673897     0.15000
H96         H  0.33557928  0.16356116  0.68022946     0.15000
H97         H  0.16631167  0.21710342  0.89364872     0.13300
H98         H  0.21428257  0.17013714  0.89640532     0.13300
H99         H  0.29957479  0.34393132  0.63599033     0.13300
H100        H  0.34536180  0.29498032  0.63449365     0.13300
H101        H  0.23336228  0.27370805  0.76164358     0.26500
H102        H  0.27440542  0.23316113  0.76325386     0.26500
N103        N  0.21817621  0.78555959  0.79437331    -0.36300
N104        N  0.28379118  0.78899184  0.74370430    -0.56800
N105        N  0.27232031  0.72638796  0.69096292    -0.36200
N106        N  0.20904373  0.72099395  0.74375202    -0.56800
C107        C  0.23406938  0.80883446  0.82297622     0.27300
C108        C  0.19413544  0.77151605  0.82392934     0.27300
C109        C  0.30567329  0.73026145  0.68243395     0.27300
C110        C  0.26507963  0.69372409  0.68227079     0.27300
C111        C  0.28029451  0.82062803  0.76220183     0.36000
C112        C  0.30861096  0.79006010  0.70830835     0.36000
C113        C  0.17790955  0.72772888  0.76241920     0.36000
C114        C  0.20501342  0.69766908  0.70674452     0.36000
C115        C  0.21947067  0.81018190  0.87113800    -0.21500
C116        C  0.19418865  0.78652438  0.87172281    -0.21500
C117        C  0.32005308  0.69963765  0.66818527    -0.21500
C118        C  0.29434491  0.67640950  0.66834452    -0.21500
C119        C  0.30270748  0.84193672  0.73804162    -0.22600
C120        C  0.32069783  0.82254974  0.70394511    -0.22600
C121        C  0.15393341  0.70899414  0.73691577    -0.22600
C122        C  0.17107560  0.69021985  0.70106876    -0.22600
C123        C  0.26082064  0.82916248  0.80567421    -0.17900
C124        C  0.17198335  0.74604069  0.80761463    -0.17900
C125        C  0.23206919  0.68051291  0.68248106    -0.17900
C126        C  0.32224188  0.76150045  0.68304686    -0.17900
H127        H  0.22654858  0.82616981  0.90278452     0.15000
H128        H  0.17793064  0.78087424  0.90370974     0.15000
H129        H  0.34615820  0.69472442  0.65797995     0.15000
H130        H  0.29676380  0.65003573  0.65827381     0.15000
H131        H  0.30644861  0.86846222  0.74545658     0.13300
H132        H  0.34084147  0.83125631  0.67955992     0.13300
H133        H  0.12706760  0.70827434  0.74449720     0.13300
H134        H  0.15995011  0.67228550  0.67507281     0.13300
H135        H  0.22194189  0.78126381  0.75549291     0.26500
H136        H  0.25469422  0.74585515  0.69553920     0.26500
N137        N  0.21686288  0.77925262  0.20110633    -0.36300
N138        N  0.21113708  0.71450559  0.25201973    -0.56800
N139        N  0.27808159  0.72275341  0.29861081    -0.36200
N140        N  0.28190794  0.78923120  0.25016125    -0.56800
C141        C  0.18549868  0.77106588  0.18537174     0.27300
C142        C  0.22318133  0.81071081  0.18422717     0.27300
C143        C  0.26605478  0.69675180  0.32642660     0.27300
C144        C  0.30330360  0.73688659  0.32596668     0.27300
C145        C  0.18450117  0.71219832  0.21975379     0.36000
C146        C  0.21608302  0.68348510  0.27217493     0.36000
C147        C  0.28244119  0.81532527  0.21702934     0.36000
C148        C  0.31317227  0.78692396  0.27071938     0.36000
C149        C  0.17145701  0.79788816  0.15835323    -0.21500
C150        C  0.19524817  0.82291772  0.15764925    -0.21500
C151        C  0.28449342  0.69376610  0.37132992    -0.21500
C152        C  0.30798728  0.71907066  0.37103164    -0.21500
C153        C  0.17219885  0.67964041  0.22008565    -0.22600
C154        C  0.19222880  0.66147788  0.25306108    -0.22600
C155        C  0.31423862  0.82968582  0.21678886    -0.22600
C156        C  0.33363053  0.81177724  0.25088045    -0.22600
C157        C  0.17071028  0.73894673  0.19012058    -0.17900
C158        C  0.25450311  0.82735707  0.18812681    -0.17900
C159        C  0.32254497  0.76507782  0.31101966    -0.17900
C160        C  0.23899779  0.67561035  0.31218176    -0.17900
H161        H  0.14707115  0.79890936  0.13958043     0.15000
H162        H  0.19269128  0.84690820  0.13828514     0.15000
H163        H  0.28113433  0.67552755  0.40154629     0.15000
H164        H  0.32618715  0.72399753  0.40093073     0.15000
H165        H  0.15094534  0.66992328  0.19886917     0.13300
H166        H  0.18924366  0.63513787  0.26254353     0.13300
H167        H  0.32257600  0.85111996  0.19483025     0.13300
H168        H  0.35970649  0.81676767  0.26050833     0.13300
H169        H  0.23445804  0.76281932  0.21688466     0.26500
H170        H  0.27114612  0.72890877  0.26138509     0.26500
N171        N  0.71298935  0.78400431  0.25348828    -0.36300
N172        N  0.71853064  0.71909777  0.30244336    -0.56800
N173        N  0.78081467  0.70618570  0.24585979    -0.36200
N174        N  0.77684615  0.77293753  0.19959501    -0.56800
C175        C  0.68832784  0.78735229  0.28903448     0.27300
C176        C  0.71837269  0.81493763  0.23374867     0.27300
C177        C  0.78274890  0.68174771  0.28190595     0.27300
C178        C  0.81208980  0.70906339  0.22542780     0.27300
C179        C  0.68789163  0.72820115  0.32096865     0.36000
C180        C  0.72459786  0.68721850  0.31823957     0.36000
C181        C  0.76586141  0.80085677  0.17466309     0.36000
C182        C  0.80236912  0.75967145  0.17136742     0.36000
C183        C  0.67815507  0.82089197  0.29210219    -0.21500
C184        C  0.69704970  0.83825550  0.25717427    -0.21500
C185        C  0.81553825  0.66882940  0.28376793    -0.21500
C186        C  0.83397200  0.68605591  0.24824611    -0.21500
C187        C  0.67436666  0.70192506  0.34879522    -0.22600
C188        C  0.69769091  0.67595944  0.34717893    -0.22600
C189        C  0.78501114  0.80575471  0.13106307    -0.22600
C190        C  0.80816945  0.77967255  0.12901357    -0.22600
C191        C  0.67337075  0.76081991  0.31681572    -0.17900
C192        C  0.73897157  0.82208267  0.19105094    -0.17900
C193        C  0.82109848  0.73031628  0.18441257    -0.17900
C194        C  0.75570978  0.66985923  0.31222499    -0.17900
H195        H  0.65863419  0.83169045  0.31623059     0.15000
H196        H  0.69478018  0.86492734  0.24898799     0.15000
H197        H  0.82531468  0.64887878  0.30800158     0.15000
H198        H  0.86053014  0.68204628  0.24004188     0.15000
H199        H  0.65068030  0.70184019  0.36942175     0.13300
H200        H  0.69555433  0.65195258  0.36642408     0.13300
H201        H  0.78251063  0.82587458  0.10339508     0.13300
H202        H  0.82695196  0.77581536  0.09951709     0.13300
H203        H  0.72224820  0.76152810  0.23845816     0.26500
H204        H  0.75884190  0.71759767  0.23209031     0.26500
N205        N  0.77884410  0.21629343  0.19515459    -0.36300
N206        N  0.71696529  0.20653019  0.25138296    -0.56800
N207        N  0.72533831  0.27194155  0.30228353    -0.36200
N208        N  0.78971568  0.27915616  0.25030549    -0.56800
C209        C  0.77212883  0.18438031  0.18051013     0.27300
C210        C  0.81022403  0.22356332  0.17860258     0.27300
C211        C  0.70032303  0.25844063  0.33042924     0.27300
C212        C  0.73954343  0.29645157  0.33084363     0.27300
C213        C  0.71438252  0.18062372  0.21805839     0.36000
C214        C  0.68628331  0.21032399  0.27334479     0.36000
C215        C  0.81361551  0.28196378  0.21380783     0.36000
C216        C  0.78662671  0.30989179  0.27219601     0.36000
C217        C  0.79955973  0.17128570  0.15375391    -0.21500
C218        C  0.82357812  0.19607414  0.15241490    -0.21500
C219        C  0.69807688  0.27502414  0.37697597    -0.21500
C220        C  0.72293808  0.29897046  0.37730487    -0.21500
C221        C  0.68194165  0.16784444  0.21913881    -0.22600
C222        C  0.66418025  0.18662696  0.25415351    -0.22600
C223        C  0.82582306  0.31456718  0.21276368    -0.22600
C224        C  0.80872621  0.33223787  0.24976697    -0.22600
C225        C  0.74100196  0.16777145  0.18734809    -0.17900
C226        C  0.82591071  0.25522245  0.18302995    -0.17900
C227        C  0.76628986  0.31729118  0.31511825    -0.17900
C228        C  0.67894598  0.23215530  0.31461476    -0.17900
H229        H  0.80178518  0.14668088  0.13612526     0.15000
H230        H  0.84784693  0.19427152  0.13350853     0.15000
H231        H  0.68050338  0.27022420  0.40768220     0.15000
H232        H  0.72821272  0.31618716  0.40829002     0.15000
H233        H  0.67203321  0.14710757  0.19710906     0.13300
H234        H  0.63808093  0.18292920  0.26488148     0.13300
H235        H  0.84521699  0.32457009  0.18815657     0.13300
H236        H  0.81233354  0.35847727  0.25937772     0.13300
H237        H  0.76168526  0.23352177  0.21004178     0.26500
H238        H  0.73028482  0.26675257  0.26408832     0.26500
Fe239      Fe  0.45363343  0.86603090  0.50110082     1.65800
Fe240      Fe  0.53801050  0.86690136  0.50166480     1.73200
Fe241      Fe  0.49781972  0.79195276  0.50117606     1.54400
O242        O  0.46620161  0.78923559  0.56427253    -0.81300
O243        O  0.56362180  0.83236597  0.45700386    -0.79600
O244        O  0.42943391  0.83049600  0.54530202    -0.83800
O245        O  0.43873999  0.84116376  0.43686381    -0.78700
O246        O  0.54034385  0.78947252  0.54870993    -0.80500
O247        O  0.52375274  0.89092296  0.43493877    -0.83200
C248        C  0.43625326  0.80959512  0.43070921     0.97600
C249        C  0.43730044  0.80336985  0.56843309     1.05000
O250        O  0.49649707  0.84132853  0.50182149    -1.12200
O251        O  0.51902606  0.90508475  0.54969026    -0.74600
O252        O  0.46596583  0.89191380  0.56708395    -0.78100
O253        O  0.45552396  0.78836834  0.45341773    -0.78800
C254        C  0.49277462  0.90772187  0.57774030     0.96500
O255        O  0.47064711  0.90440660  0.45334411    -0.76700
O256        O  0.55536643  0.84241007  0.56552638    -0.81900
C257        C  0.55750991  0.80522013  0.43336063     0.99100
C258        C  0.55931346  0.81076560  0.57083514     1.05000
O259        O  0.52962289  0.78989816  0.43782526    -0.77600
C260        C  0.49615031  0.90572988  0.42386542     1.03300
Fe261      Fe  0.63308534  0.04015607  0.99941985     1.65800
Fe262      Fe  0.63255766  0.95543556  0.00483784     1.73200
Fe263      Fe  0.70719036  0.99632305  0.00003166     1.54400
O264        O  0.71068640  0.03900576  0.95348907    -0.81300
O265        O  0.65926195  0.93946013  0.06760123    -0.79600
O266        O  0.65808334  0.05513169  0.93496834    -0.83800
O267        O  0.66880936  0.06386692  0.04408782    -0.78700
O268        O  0.70769469  0.96543672  0.93624885    -0.80500
O269        O  0.59651315  0.97423717  0.05569297    -0.83200
C270        C  0.69567649  0.05574977  0.06807401     0.97600
C271        C  0.68979351  0.05799373  0.92970374     1.05000
O272        O  0.65763972  0.99728343  0.00146720    -1.12200
O273        O  0.60443368  0.96802854  0.94012370    -0.74600
O274        O  0.59476102  0.02270519  0.95188895    -0.78100
O275        O  0.70992975  0.02699177  0.06381969    -0.78800
C276        C  0.59024471  0.99562368  0.92684261     0.96500
O277        O  0.60684134  0.02891523  0.06511824    -0.76700
O278        O  0.66660001  0.93025137  0.95827955    -0.81900
C279        C  0.69102694  0.93544679  0.07115577     0.99100
C280        C  0.69305329  0.93716417  0.93308334     1.05000
O281        O  0.71160565  0.95361444  0.04643681    -0.77600
C282        C  0.59311145  0.00189656  0.07980474     1.03300
Fe283      Fe  0.36237126  0.04210835  0.00624578     1.65800
Fe284      Fe  0.36201658  0.95735072  0.00220867     1.73200
Fe285      Fe  0.28672601  0.00098985  0.00289612     1.54400
O286        O  0.28274006  0.04069049  0.05435716    -0.81300
O287        O  0.33587060  0.94116423  0.94022137    -0.79600
O288        O  0.33471739  0.06009997  0.06601080    -0.83800
O289        O  0.33055918  0.06560816  0.95571454    -0.78700
O290        O  0.28307270  0.96728722  0.06315531    -0.80500
O291        O  0.39866341  0.97382204  0.95106103    -0.83200
C292        C  0.30252665  0.06069020  0.93363188     0.97600
C293        C  0.30339989  0.06042459  0.07590334     1.05000
O294        O  0.33683306  0.00017010  0.00389850    -1.12200
O295        O  0.39012580  0.96919856  0.06577209    -0.74600
O296        O  0.39675592  0.02464570  0.06032693    -0.78100
O297        O  0.28454318  0.03505100  0.94274998    -0.78800
C298        C  0.40213010  0.99656654  0.08226797     0.96500
O299        O  0.39201485  0.02910016  0.94405627    -0.76700
O300        O  0.32807044  0.93397511  0.04979162    -0.81900
C301        C  0.30455189  0.94090176  0.93026053     0.99100
C302        C  0.29962402  0.94007487  0.07050572     1.05000
O303        O  0.28349322  0.96100563  0.95141406    -0.77600
C304        C  0.40454574  0.00143629  0.92835160     1.03300
Fe305      Fe  0.45775116  0.13681802  0.49605890     1.65800
Fe306      Fe  0.54251803  0.13453664  0.49874033     1.73200
Fe307      Fe  0.50121853  0.21003763  0.50100323     1.54400
O308        O  0.47084380  0.21517254  0.43678749    -0.81300
O309        O  0.56716778  0.16838123  0.54483725    -0.79600
O310        O  0.43545037  0.17233585  0.44810506    -0.83800
O311        O  0.43901339  0.16199742  0.55817450    -0.78700
O312        O  0.54472572  0.21258076  0.45537235    -0.80500
O313        O  0.52835536  0.10883069  0.56356921    -0.83200
C314        C  0.43781076  0.19343708  0.56659464     0.97600
C315        C  0.44337591  0.20007577  0.42726793     1.05000
O316        O  0.50034592  0.16069403  0.49851629    -1.12200
O317        O  0.52523633  0.09716042  0.44975110    -0.74600
O318        O  0.47231013  0.11110578  0.43096264    -0.78100
O319        O  0.45832133  0.21409838  0.54684464    -0.78800
C320        C  0.49962206  0.09562828  0.42055442     0.96500
O321        O  0.47426681  0.09890327  0.54728684    -0.76700
O322        O  0.55957313  0.15962273  0.43598192    -0.81900
C323        C  0.55924136  0.19452993  0.57019217     0.99100
C324        C  0.56347467  0.19119453  0.43199295     1.05000
O325        O  0.53079199  0.20932663  0.56599967    -0.77600
C326        C  0.50061506  0.09513370  0.57523170     1.03300
C327        C  0.49846787  0.99959041  0.25115038    -0.02100
C328        C  0.49640558  0.00237358  0.75141463    -0.02100
Fe329      Fe  0.86277139  0.53825963  0.50310774     1.65800
Fe330      Fe  0.86303408  0.45395327  0.49816850     1.73200
Fe331      Fe  0.78800440  0.49677417  0.50004484     1.54400
O332        O  0.78431596  0.53892143  0.54821649    -0.81300
O333        O  0.83771358  0.43900512  0.43442761    -0.79600
O334        O  0.83710116  0.55369877  0.56678950    -0.83800
O335        O  0.82787051  0.56330645  0.45793849    -0.78700
O336        O  0.78553001  0.46498042  0.56287890    -0.80500
O337        O  0.90050630  0.47205076  0.44921136    -0.83200
C338        C  0.80078116  0.55699922  0.43380721     0.97600
C339        C  0.80538232  0.55717779  0.57215703     1.05000
O340        O  0.83777358  0.49633894  0.50064711    -1.12200
O341        O  0.89009173  0.46510882  0.56329848    -0.74600
O342        O  0.90022749  0.51966236  0.55301202    -0.78100
O343        O  0.78596488  0.52881596  0.43731095    -0.78800
C344        C  0.90427017  0.49204942  0.57724803     0.96500
O345        O  0.88932008  0.52634480  0.43668042    -0.76700
O346        O  0.82809820  0.42973932  0.54393566    -0.81900
C347        C  0.80614233  0.43532189  0.42940426     0.99100
C348        C  0.80077460  0.43671674  0.56762796     1.05000
O349        O  0.78472318  0.45433224  0.45221311    -0.77600
C350        C  0.90393742  0.49904266  0.42341794     1.03300
Fe351      Fe  0.96083248  0.62976851  0.99643354     1.65800
Fe352      Fe  0.04594423  0.63293855  0.99336252     1.73200
Fe353      Fe  0.99964696  0.70573646  0.99889924     1.54400
O354        O  0.96789094  0.70820324  0.93578158    -0.81300
O355        O  0.06872903  0.66783067  0.03952586    -0.79600
O356        O  0.93527226  0.66356279  0.94977868    -0.83800
O357        O  0.94140515  0.65420779  0.05906483    -0.78700
O358        O  0.04182976  0.71172121  0.95172862    -0.80500
O359        O  0.03494687  0.60501603  0.05821457    -0.83200
C360        C  0.93779318  0.68557916  0.06690443     0.97600
C361        C  0.94087475  0.69178860  0.92866531     1.05000
O362        O  0.00204056  0.65628395  0.99627018    -1.12200
O363        O  0.03054148  0.59502691  0.94358602    -0.74600
O364        O  0.97571470  0.60374703  0.93084944    -0.78100
O365        O  0.95704123  0.70720787  0.04639220    -0.78800
C366        C  0.00382255  0.59063962  0.91755630     0.96500
O367        O  0.98026378  0.59405405  0.04802731    -0.76700
O368        O  0.06062187  0.66036950  0.93071120    -0.81900
C369        C  0.06052466  0.69387430  0.06498756     0.99100
C370        C  0.06190312  0.69229545  0.92713105     1.05000
O371        O  0.03128945  0.70750196  0.06215355    -0.77600
C372        C  0.00786552  0.59112327  0.07292382     1.03300
Fe373      Fe  0.95445951  0.36235551  0.99872272     1.65800
Fe374      Fe  0.03887731  0.36279201  0.00088380     1.73200
Fe375      Fe  0.99864408  0.28806238  0.99603414     1.54400
O376        O  0.96684763  0.28408072  0.05859847    -0.81300
O377        O  0.06401267  0.32959289  0.95414034    -0.79600
O378        O  0.93085716  0.32639844  0.04162474    -0.83800
O379        O  0.93879322  0.33832117  0.93365050    -0.78700
O380        O  0.04091141  0.28437759  0.04462607    -0.80500
O381        O  0.02516571  0.38850649  0.93541950    -0.83200
C382        C  0.93651156  0.30679456  0.92630922     0.97600
C383        C  0.93830407  0.29881749  0.06365395     1.05000
O384        O  0.99726634  0.33746387  0.99889385    -1.12200
O385        O  0.02017871  0.39969626  0.05059149    -0.74600
O386        O  0.96655064  0.38748072  0.06575382    -0.78100
O387        O  0.95633716  0.28545795  0.94777020    -0.78800
C388        C  0.99364238  0.40237497  0.07779703     0.96500
O389        O  0.97164558  0.40123248  0.95250907    -0.76700
O390        O  0.05567266  0.33692681  0.06384301    -0.81900
C391        C  0.05770673  0.30364928  0.92772461     0.99100
C392        C  0.05896657  0.30526642  0.06942106     1.05000
O393        O  0.03037679  0.28749384  0.93280318    -0.77600
C394        C  0.99756269  0.40321579  0.92406672     1.03300
Fe395      Fe  0.13577091  0.54153472  0.50449462     1.65800
Fe396      Fe  0.13893053  0.45740088  0.49465880     1.73200
Fe397      Fe  0.21216001  0.50135942  0.50024068     1.54400
O398        O  0.21338024  0.53487088  0.43899990    -0.81300
O399        O  0.17448232  0.43267909  0.53774859    -0.79600
O400        O  0.16888590  0.56712866  0.45909150    -0.83800
O401        O  0.16146305  0.55737841  0.56870196    -0.78700
O402        O  0.21711306  0.46057219  0.45101619    -0.80500
O403        O  0.11212966  0.46675738  0.56203899    -0.83200
C404        C  0.19317087  0.56110672  0.57268905     0.97600
C405        C  0.19610111  0.56207557  0.43449997     1.05000
O406        O  0.16244110  0.50015070  0.49990107    -1.12200
O407        O  0.10036398  0.47533075  0.44764303    -0.74600
O408        O  0.10859524  0.53012547  0.43871213    -0.78100
O409        O  0.21441834  0.54282596  0.54863876    -0.78800
C410        C  0.09539450  0.50282129  0.42378375     0.96500
O411        O  0.09986770  0.52120836  0.55280029    -0.76700
O412        O  0.16512690  0.44483714  0.42912062    -0.81900
C413        C  0.20080093  0.43914623  0.56337120     0.99100
C414        C  0.19704795  0.44273724  0.42479792     1.05000
O415        O  0.21513709  0.46774219  0.56162355    -0.77600
C416        C  0.09720582  0.49358176  0.57700169     1.03300
C417        C  0.00050928  0.49875579  0.24936286    -0.02100
C418        C  0.00099770  0.49364485  0.74806264    -0.02100
N419        N  0.20878373  0.28175135  0.25813038    -0.36300
N420        N  0.21480432  0.21600048  0.21230938    -0.56800
N421        N  0.28177049  0.21073757  0.26102691    -0.36200
N422        N  0.27358245  0.27453171  0.30986425    -0.56800
C423        C  0.17697829  0.27592824  0.24172401     0.27300
C424        C  0.20670726  0.30586858  0.29444435     0.27300
C425        C  0.27541947  0.17889655  0.24610773     0.27300
C426        C  0.30647442  0.20909235  0.29681299     0.27300
C427        C  0.19001753  0.22949310  0.18281036     0.36000
C428        C  0.22930608  0.19099471  0.18472338     0.36000
C429        C  0.26748693  0.30783250  0.31616420     0.36000
C430        C  0.30707011  0.26948864  0.31771463     0.36000
C431        C  0.15424821  0.29589620  0.26865774    -0.21500
C432        C  0.17297679  0.31446598  0.30261144    -0.21500
C433        C  0.29576178  0.15656451  0.27342184    -0.21500
C434        C  0.31523945  0.17563649  0.30576962    -0.21500
C435        C  0.18837694  0.21270332  0.13652754    -0.22600
C436        C  0.21335566  0.18821996  0.13771813    -0.22600
C437        C  0.29730760  0.32409580  0.32797067    -0.22600
C438        C  0.32240259  0.29975087  0.32905054    -0.22600
C439        C  0.16897086  0.25660114  0.19827347    -0.17900
C440        C  0.23480706  0.32282728  0.31533264    -0.17900
C441        C  0.32307347  0.23739978  0.31756638    -0.17900
C442        C  0.25627147  0.17045790  0.20251319    -0.17900
H443        H  0.12714562  0.29757396  0.26326338     0.15000
H444        H  0.16293468  0.33316454  0.32879104     0.15000
H445        H  0.29733980  0.12947167  0.26889557     0.15000
H446        H  0.33440508  0.16600047  0.33163995     0.15000
H447        H  0.17139446  0.21784966  0.10497254     0.13300
H448        H  0.21936032  0.17079087  0.10716479     0.13300
H449        H  0.30063876  0.35068086  0.33528424     0.13300
H450        H  0.34884210  0.30388122  0.33720980     0.13300
H451        H  0.23086196  0.27366784  0.23999562     0.26500
H452        H  0.27350048  0.23237197  0.24200386     0.26500
C453        C  0.05989548  0.47282204  0.70883038    -0.21000
C454        C  0.03220892  0.49565756  0.71121696    -0.09000
C455        C  0.03099535  0.52108331  0.67309482     0.29900
C456        C  0.05165924  0.51952436  0.63014019    -0.21000
C457        C  0.07577462  0.49371054  0.62404261    -0.09000
C458        C  0.08073926  0.47105221  0.66503140     0.29900
F459        F  0.10629666  0.44791935  0.66358503    -0.19500
H460        H  0.06625831  0.45681610  0.74067631     0.18200
H461        H  0.04814754  0.53852752  0.60086046     0.18200
F462        F  0.00775707  0.54648612  0.67534018    -0.19500
C463        C  0.06879193  0.47177312  0.35081739    -0.21000
C464        C  0.07413583  0.50232339  0.37638229    -0.09000
C465        C  0.05913702  0.53162376  0.35595811     0.29900
C466        C  0.03862863  0.53002045  0.31213711    -0.21000
C467        C  0.03190919  0.49925032  0.28660570    -0.09000
C468        C  0.04798464  0.46985710  0.30753251     0.29900
F469        F  0.04087388  0.43828013  0.29131564    -0.19500
H470        H  0.07983264  0.44862410  0.36560625     0.18200
H471        H  0.02605178  0.55303293  0.30013616     0.18200
F472        F  0.06247334  0.56167000  0.38008510    -0.19500
C473        C  0.24077059  0.36179409  0.38981723    -0.21000
C474        C  0.22922570  0.35643128  0.33980465    -0.09000
C475        C  0.21034459  0.38223341  0.31532887     0.29900
C476        C  0.20069630  0.41125900  0.34231194    -0.21000
C477        C  0.21141076  0.41578277  0.39282885    -0.09000
C478        C  0.23269032  0.39150301  0.41565838     0.29900
F479        F  0.24344524  0.39527719  0.46455989    -0.19500
H480        H  0.25505246  0.34235776  0.40969980     0.18200
H481        H  0.18436851  0.42986309  0.32421698     0.18200
F482        F  0.19992713  0.37866994  0.26621059    -0.19500
C483        C  0.96551020  0.43979841  0.14351902    -0.21000
C484        C  0.99468435  0.42358536  0.12497394    -0.09000
C485        C  0.02511200  0.42829357  0.15158382     0.29900
C486        C  0.02657492  0.45010852  0.19361275    -0.21000
C487        C  0.99760714  0.46747982  0.21256828    -0.09000
C488        C  0.96685634  0.46155079  0.18587650     0.29900
F489        F  0.93802472  0.47833184  0.19825115    -0.19500
H490        H  0.94166081  0.43680833  0.12376801     0.18200
H491        H  0.05145680  0.45507028  0.20855780     0.18200
F492        F  0.05393183  0.41227528  0.13643223    -0.19500
C493        C  0.01394254  0.41310982  0.83251456    -0.21000
C494        C  0.99546710  0.42307789  0.87605784    -0.09000
C495        C  0.97326132  0.45067031  0.87174794     0.29900
C496        C  0.97283688  0.47004447  0.82734309    -0.21000
C497        C  0.99581049  0.46391413  0.78661230    -0.09000
C498        C  0.01293469  0.43239566  0.78736495     0.29900
F499        F  0.02523784  0.41810619  0.74412852    -0.19500
H500        H  0.02837000  0.38971631  0.83294352     0.18200
H501        H  0.95645706  0.49208862  0.82690789     0.18200
F502        F  0.95324217  0.46020712  0.91142008    -0.19500
C503        C  0.08627658  0.25923650  0.12246860    -0.21000
C504        C  0.08610104  0.29260545  0.10415070    -0.09000
C505        C  0.11351445  0.31344137  0.11674443     0.29900
C506        C  0.13993049  0.30131506  0.14719426    -0.21000
C507        C  0.14007593  0.26815998  0.16569539    -0.09000
C508        C  0.11298959  0.24708730  0.15307589     0.29900
F509        F  0.11231720  0.21491359  0.17051244    -0.19500
H510        H  0.06576023  0.24253499  0.11305130     0.18200
H511        H  0.16076621  0.31782745  0.15588151     0.18200
F512        F  0.11567073  0.34524285  0.09801721    -0.19500
C513        C  0.98620338  0.57874080  0.16168800    -0.21000
C514        C  0.00831563  0.57098105  0.12111165    -0.09000
C515        C  0.03281780  0.54589019  0.12932843     0.29900
C516        C  0.03179084  0.52594426  0.17344357    -0.21000
C517        C  0.00544910  0.52897070  0.21026517    -0.09000
C518        C  0.98638325  0.55940848  0.20710632     0.29900
F519        F  0.97292257  0.57383042  0.24946551    -0.19500
H520        H  0.97011933  0.60099390  0.15934612     0.18200
H521        H  0.05161940  0.50734271  0.17771584     0.18200
F522        F  0.05724328  0.53986794  0.09399499    -0.19500
C523        C  0.98545605  0.55439061  0.78472003    -0.21000
C524        C  0.00596877  0.52506223  0.78404305    -0.09000
C525        C  0.03111626  0.52268052  0.82291564     0.29900
C526        C  0.03050500  0.54412907  0.86546835    -0.21000
C527        C  0.00574137  0.56952987  0.87017284    -0.09000
C528        C  0.98433111  0.57556768  0.82795096     0.29900
F529        F  0.96268984  0.60237769  0.82795724    -0.19500
H530        H  0.97035427  0.56148593  0.75214963     0.18200
H531        H  0.04875211  0.53994343  0.89576608     0.18200
F532        F  0.05481287  0.49761872  0.82190396    -0.19500
C533        C  0.97355878  0.46653643  0.67011089    -0.21000
C534        C  0.97014198  0.49046786  0.71030416    -0.09000
C535        C  0.93988187  0.50998377  0.71012428     0.29900
C536        C  0.91930276  0.51141689  0.66605091    -0.21000
C537        C  0.92627213  0.49094642  0.62336611    -0.09000
C538        C  0.95249496  0.46708945  0.62719268     0.29900
F539        F  0.95878407  0.44521086  0.58835801    -0.19500
H540        H  0.99444267  0.44865770  0.67005157     0.18200
H541        H  0.89696367  0.52749558  0.66609157     0.18200
F542        F  0.92771578  0.52441311  0.75332410    -0.19500
C543        C  0.91985638  0.52016487  0.33477251    -0.21000
C544        C  0.92571928  0.49829408  0.37643038    -0.09000
C545        C  0.95077629  0.47339148  0.37052954     0.29900
C546        C  0.97072315  0.47218080  0.32659893    -0.21000
C547        C  0.96955022  0.49748909  0.28825554    -0.09000
C548        C  0.94045656  0.51896670  0.29048593     0.29900
F549        F  0.92827652  0.53466592  0.24825764    -0.19500
H550        H  0.89827302  0.53723760  0.33547038     0.18200
H551        H  0.98811446  0.45131751  0.32402738     0.18200
F552        F  0.95682611  0.45033450  0.40784265    -0.19500
C553        C  0.52521508  0.05052662  0.70054001    -0.21000
C554        C  0.49561732  0.03278122  0.71323827    -0.09000
C555        C  0.46720089  0.03783721  0.68071076     0.29900
C556        C  0.46898594  0.05809015  0.63684417    -0.21000
C557        C  0.49895765  0.07435732  0.62326799    -0.09000
C558        C  0.52684006  0.07110245  0.65685774     0.29900
F559        F  0.55627792  0.08702976  0.64703488    -0.19500
H560        H  0.54813253  0.04707773  0.72254094     0.18200
H561        H  0.44680606  0.06038533  0.61275381     0.18200
F562        F  0.43778827  0.02177063  0.68987793    -0.19500
C563        C  0.52654970  0.04955011  0.36899455    -0.21000
C564        C  0.50179364  0.07491543  0.37321279    -0.09000
C565        C  0.48081648  0.08128941  0.33063649     0.29900
C566        C  0.48228892  0.06023746  0.28750078    -0.21000
C567        C  0.50272397  0.03079250  0.28731822    -0.09000
C568        C  0.52764653  0.02841362  0.32636447     0.29900
F569        F  0.55174036  0.00375385  0.32527619    -0.19500
H570        H  0.54456127  0.04524498  0.39956887     0.18200
H571        H  0.46795523  0.06801718  0.25457865     0.18200
F572        F  0.45931645  0.10824037  0.33011236    -0.19500
C573        C  0.41325506  0.20632543  0.34378409    -0.21000
C574        C  0.41754381  0.21627041  0.39471237    -0.09000
C575        C  0.39263335  0.23654162  0.41801079     0.29900
C576        C  0.36246199  0.24411580  0.39234223    -0.21000
C577        C  0.35709949  0.23274509  0.34216109    -0.09000
C578        C  0.38361915  0.21518957  0.31718751     0.29900
F579        F  0.38023900  0.20537721  0.26779582    -0.19500
H580        H  0.43220555  0.19058581  0.32535424     0.18200
H581        H  0.34268790  0.25776542  0.41247066     0.18200
F582        F  0.39659250  0.24710365  0.46696582    -0.19500
C583        C  0.44788022  0.97031892  0.13417169    -0.21000
C584        C  0.42324584  0.99552473  0.12879924    -0.09000
C585        C  0.41797935  0.01827907  0.16925443     0.29900
C586        C  0.43869882  0.01695679  0.21283768    -0.21000
C587        C  0.46756941  0.99569935  0.21431935    -0.09000
C588        C  0.46964694  0.97019549  0.17607626     0.29900
F589        F  0.49455810  0.94638548  0.17693615    -0.19500
H590        H  0.45137687  0.95151252  0.10456151     0.18200
H591        H  0.43120394  0.03211625  0.24497643     0.18200
F592        F  0.39234688  0.04131863  0.16713210    -0.19500
C593        C  0.42830508  0.03045143  0.85054397    -0.21000
C594        C  0.42585894  0.00131030  0.88097316    -0.09000
C595        C  0.44284274  0.97196818  0.86429163     0.29900
C596        C  0.46206373  0.97211609  0.81944319    -0.21000
C597        C  0.46608199  0.00156536  0.78962906    -0.09000
C598        C  0.44815322  0.03087055  0.80599189     0.29900
F599        F  0.45108225  0.06072590  0.78134512    -0.19500
H600        H  0.41531857  0.05346582  0.86181881     0.18200
H601        H  0.47576717  0.94925514  0.80956584     0.18200
F602        F  0.44219276  0.94322502  0.89230961    -0.19500
C603        C  0.31271474  0.11286221  0.12496120    -0.21000
C604        C  0.29090479  0.08657311  0.11168684    -0.09000
C605        C  0.25728521  0.08766041  0.12943910     0.29900
C606        C  0.24599521  0.11474781  0.15953310    -0.21000
C607        C  0.26788267  0.14114625  0.17171520    -0.09000
C608        C  0.30137995  0.13988667  0.15416830     0.29900
F609        F  0.32308703  0.16525235  0.16439776    -0.19500
H610        H  0.33857182  0.11319363  0.11146234     0.18200
H611        H  0.22012589  0.11533063  0.17300835     0.18200
F612        F  0.23531404  0.06287278  0.11755555    -0.19500
C613        C  0.55739031  0.98096350  0.21082935    -0.21000
C614        C  0.52900651  0.00285046  0.21348244    -0.09000
C615        C  0.52674759  0.02841520  0.17535526     0.29900
C616        C  0.54786173  0.02809901  0.13275366    -0.21000
C617        C  0.57228617  0.00279593  0.12666626    -0.09000
C618        C  0.57776887  0.97982354  0.16682057     0.29900
F619        F  0.60338464  0.95680424  0.16399879    -0.19500
H620        H  0.56473063  0.96516271  0.24233872     0.18200
H621        H  0.54417036  0.04700550  0.10335230     0.18200
F622        F  0.50228692  0.05264721  0.17722662    -0.19500
C623        C  0.54257513  0.97108137  0.80462636    -0.21000
C624        C  0.52706503  0.00192601  0.78939668    -0.09000
C625        C  0.53325094  0.03032556  0.82081589     0.29900
C626        C  0.55379280  0.02791738  0.86438610    -0.21000
C627        C  0.56834817  0.99705365  0.87988830    -0.09000
C628        C  0.56249795  0.96855487  0.84911034     0.29900
F629        F  0.57486692  0.93779601  0.86283385    -0.19500
H630        H  0.53744599  0.94802543  0.78418448     0.18200
H631        H  0.55750412  0.05045270  0.88693338     0.18200
F632        F  0.51773156  0.06035154  0.81135522    -0.19500
C633        C  0.52403641  0.94540269  0.63877366    -0.21000
C634        C  0.49385901  0.92957819  0.62458029    -0.09000
C635        C  0.46545009  0.93421195  0.65647471     0.29900
C636        C  0.46711064  0.95480184  0.70007268    -0.21000
C637        C  0.49700449  0.97189756  0.71351551    -0.09000
C638        C  0.52569106  0.96613266  0.68209617     0.29900
F639        F  0.55520540  0.98197418  0.69174309    -0.19500
H640        H  0.54654112  0.94227987  0.61567460     0.18200
H641        H  0.44398655  0.95894350  0.72122199     0.18200
F642        F  0.43546095  0.91987607  0.64478751    -0.19500
C643        C  0.51343687  0.93906241  0.28956964    -0.21000
C644        C  0.49426989  0.96934882  0.28922820    -0.09000
C645        C  0.46991531  0.97310003  0.32892245     0.29900
C646        C  0.47037808  0.95219003  0.37177973    -0.21000
C647        C  0.49382929  0.92569554  0.37579715    -0.09000
C648        C  0.51386919  0.91792900  0.33276066     0.29900
F649        F  0.53325509  0.88944225  0.33185977    -0.19500
H650        H  0.52726788  0.93058679  0.25659689     0.18200
H651        H  0.45301805  0.95760024  0.40275727     0.18200
F652        F  0.44697119  0.99881753  0.32826694    -0.19500
C653        C  0.81681199  0.37783877  0.39527411    -0.21000
C654        C  0.79481280  0.40589564  0.39927515    -0.09000
C655        C  0.76228892  0.40390353  0.37767746     0.29900
C656        C  0.75270180  0.37480841  0.35106543    -0.21000
C657        C  0.77515265  0.34722604  0.34644747    -0.09000
C658        C  0.80708143  0.34879307  0.36963587     0.29900
F659        F  0.82897503  0.32218622  0.36718100    -0.19500
H660        H  0.84160951  0.37808175  0.41286402     0.18200
H661        H  0.72795294  0.37391097  0.33343153     0.18200
F662        F  0.74009877  0.43014660  0.38136842    -0.19500
C663        C  0.65141001  0.19500454  0.37743780    -0.21000
C664        C  0.64948451  0.22379362  0.34676482    -0.09000
C665        C  0.61935534  0.24291189  0.34506780     0.29900
C666        C  0.59109512  0.23257110  0.37302085    -0.21000
C667        C  0.59269607  0.20289657  0.40224941    -0.09000
C668        C  0.62340506  0.18460905  0.40500245     0.29900
F669        F  0.62665251  0.15705406  0.43543164    -0.19500
H670        H  0.67468017  0.18034796  0.37949987     0.18200
H671        H  0.56787150  0.24727418  0.37109730     0.18200
F672        F  0.61716498  0.27098513  0.31561416    -0.19500
C673        C  0.88859450  0.25879148  0.17070629    -0.21000
C674        C  0.85568893  0.26186714  0.15079337    -0.09000
C675        C  0.85071961  0.27450923  0.10146489     0.29900
C676        C  0.87821889  0.28504034  0.07296544    -0.21000
C677        C  0.91111673  0.28326176  0.09320675    -0.09000
C678        C  0.91638256  0.26920448  0.14181146     0.29900
F679        F  0.94786136  0.26749518  0.16237087    -0.19500
H680        H  0.89252416  0.24937145  0.20910018     0.18200
H681        H  0.87370863  0.29554974  0.03531912     0.18200
F682        F  0.81905493  0.27833647  0.08206574    -0.19500
C683        C  0.71925846  0.07786403  0.15036044    -0.21000
C684        C  0.71166348  0.08228678  0.09844262    -0.09000
C685        C  0.71734211  0.11364364  0.07527477     0.29900
C686        C  0.72866756  0.14071313  0.10415044    -0.21000
C687        C  0.73440882  0.13706364  0.15660803    -0.09000
C688        C  0.73042169  0.10523888  0.17954475     0.29900
F689        F  0.73606411  0.10108190  0.23030047    -0.19500
H690        H  0.71508932  0.05379568  0.16862919     0.18200
H691        H  0.73170795  0.16500539  0.08597961     0.18200
F692        F  0.71128721  0.11821163  0.02465691    -0.19500
C693        C  0.58182839  0.77994490  0.35261065    -0.21000
C694        C  0.58567456  0.79050808  0.40346313    -0.09000
C695        C  0.61797209  0.78909422  0.42610372     0.29900
C696        C  0.64602268  0.77828169  0.39815213    -0.21000
C697        C  0.64252755  0.76884907  0.34699842    -0.09000
C698        C  0.61025075  0.76943148  0.32427866     0.29900
F699        F  0.60653132  0.76064170  0.27451147    -0.19500
H700        H  0.55722972  0.78105294  0.33444583     0.18200
H701        H  0.67073561  0.77804630  0.41603738     0.18200
F702        F  0.62239618  0.79842417  0.47553722    -0.19500
C703        C  0.75500570  0.60754664  0.33033510    -0.21000
C704        C  0.76277848  0.64048257  0.34570800    -0.09000
C705        C  0.78047083  0.64557842  0.39131148     0.29900
C706        C  0.79203785  0.61812373  0.41961401    -0.21000
C707        C  0.78584216  0.58493540  0.40349419    -0.09000
C708        C  0.76609932  0.57978538  0.35946387     0.29900
F709        F  0.75886070  0.54816455  0.34345678    -0.19500
H710        H  0.74121450  0.60340548  0.29518007     0.18200
H711        H  0.80633770  0.62291097  0.45413067     0.18200
F712        F  0.78805646  0.67722317  0.40696126    -0.19500
C713        C  0.73647375  0.90771138  0.12476969    -0.21000
C714        C  0.70409195  0.90707453  0.10244221    -0.09000
C715        C  0.68466414  0.87778493  0.10731084     0.29900
C716        C  0.69680072  0.85040128  0.13528065    -0.21000
C717        C  0.72852626  0.85133435  0.15896878    -0.09000
C718        C  0.74859586  0.88006824  0.15321315     0.29900
F719        F  0.77956211  0.88146025  0.17541355    -0.19500
H720        H  0.75216772  0.92969218  0.12064917     0.18200
H721        H  0.68127259  0.82822730  0.13871171     0.18200
F722        F  0.65430527  0.87503801  0.08352793    -0.19500
C723        C  0.85092844  0.68902478  0.12796202    -0.21000
C724        C  0.85115830  0.72013445  0.15332406    -0.09000
C725        C  0.88027581  0.74002859  0.15061564     0.29900
C726        C  0.90868151  0.72869332  0.12306893    -0.21000
C727        C  0.90864262  0.69717031  0.09841631    -0.09000
C728        C  0.87915500  0.67761483  0.10078689     0.29900
F729        F  0.87698320  0.64793696  0.07523263    -0.19500
H730        H  0.82863730  0.67347895  0.12927251     0.18200
H731        H  0.93077826  0.74445651  0.12126702     0.18200
F732        F  0.88133742  0.77015136  0.17506512    -0.19500
C733        C  0.23981770  0.58957777  0.37810841    -0.21000
C734        C  0.20778263  0.59018178  0.40160306    -0.09000
C735        C  0.18732388  0.61945419  0.39634844     0.29900
C736        C  0.19883146  0.64720670  0.36964398    -0.21000
C737        C  0.23023429  0.64643623  0.34524123    -0.09000
C738        C  0.25087376  0.61739893  0.34959798     0.29900
F739        F  0.28121134  0.61572496  0.32556480    -0.19500
H740        H  0.25621831  0.56764026  0.38168313     0.18200
H741        H  0.18252348  0.66927268  0.36647709     0.18200
F742        F  0.15576218  0.62153128  0.41650317    -0.19500
C743        C  0.41014935  0.76737495  0.37128960    -0.21000
C744        C  0.40793330  0.79759866  0.39914876    -0.09000
C745        C  0.37718932  0.81591182  0.39944236     0.29900
C746        C  0.34962807  0.80467716  0.37146703    -0.21000
C747        C  0.35198069  0.77500885  0.34266895    -0.09000
C748        C  0.38237578  0.75624861  0.34277784     0.29900
F749        F  0.38525863  0.72761470  0.31471460    -0.19500
H750        H  0.43342068  0.75269229  0.37111469     0.18200
H751        H  0.32626060  0.81922780  0.37208412     0.18200
F752        F  0.37331914  0.84413331  0.42834779    -0.19500
C753        C  0.12092833  0.70598246  0.07890892    -0.21000
C754        C  0.08740672  0.70893191  0.09636115    -0.09000
C755        C  0.08097092  0.72499415  0.14326699     0.29900
C756        C  0.10805890  0.73570788  0.17369064    -0.21000
C757        C  0.14151824  0.73125183  0.15675534    -0.09000
C758        C  0.14768758  0.71719646  0.10858573     0.29900
F759        F  0.17980119  0.71327745  0.09112276    -0.19500
H760        H  0.12650695  0.69451543  0.04224861     0.18200
H761        H  0.10307665  0.74676278  0.21078312     0.18200
F762        F  0.04884588  0.72890601  0.16054800    -0.19500
C763        C  0.27392009  0.85256977  0.10742438    -0.21000
C764        C  0.26013402  0.85744703  0.15598866    -0.09000
C765        C  0.25698471  0.89027325  0.17589901     0.29900
C766        C  0.26877358  0.91786672  0.14770279    -0.21000
C767        C  0.28449404  0.91254257  0.10020008    -0.09000
C768        C  0.28621822  0.87972713  0.07991547     0.29900
F769        F  0.30022996  0.87386810  0.03338588    -0.19500
H770        H  0.27665815  0.82736689  0.09189887     0.18200
H771        H  0.26695886  0.94298803  0.16372784     0.18200
F772        F  0.24389268  0.89526537  0.22323906    -0.19500
C773        C  0.35243564  0.76740989  0.60037412    -0.21000
C774        C  0.35402056  0.76544703  0.65372890    -0.09000
C775        C  0.38470432  0.77212536  0.67876772     0.29900
C776        C  0.41282219  0.78282043  0.65083235    -0.21000
C777        C  0.41039311  0.78702098  0.59779643    -0.09000
C778        C  0.38034493  0.77821806  0.57255658     0.29900
F779        F  0.37772178  0.78112290  0.52101075    -0.19500
H780        H  0.32898141  0.76232682  0.58057081     0.18200
H781        H  0.43580220  0.78944323  0.67075676     0.18200
F782        F  0.38676955  0.76993488  0.73039158    -0.19500
C783        C  0.23202071  0.64494728  0.60347041    -0.21000
C784        C  0.22519724  0.64812594  0.65582658    -0.09000
C785        C  0.20944221  0.62137333  0.68150742     0.29900
C786        C  0.19928553  0.59271788  0.65464476    -0.21000
C787        C  0.20580734  0.58982637  0.60229759    -0.09000
C788        C  0.22259195  0.61599195  0.57689343     0.29900
F789        F  0.22818223  0.61434238  0.52577534    -0.19500
H790        H  0.24371012  0.66538974  0.58287772     0.18200
H791        H  0.18623350  0.57285253  0.67458964     0.18200
F792        F  0.20314713  0.62341200  0.73235744    -0.19500
C793        C  0.31550753  0.88820787  0.88180556    -0.21000
C794        C  0.29269626  0.91424102  0.89517443    -0.09000
C795        C  0.25878070  0.91200226  0.87909196     0.29900
C796        C  0.24843657  0.88454876  0.84944999    -0.21000
C797        C  0.27141990  0.85855181  0.83682491    -0.09000
C798        C  0.30494114  0.86045480  0.85407435     0.29900
F799        F  0.32744508  0.83501958  0.84499035    -0.19500
H800        H  0.34157163  0.88850034  0.89447848     0.18200
H801        H  0.22240054  0.88331303  0.83682868     0.18200
F802        F  0.23554157  0.93582157  0.89261756    -0.19500
C803        C  0.11535950  0.75390933  0.85060797    -0.21000
C804        C  0.14440195  0.73414316  0.84142004    -0.09000
C805        C  0.14620966  0.70125868  0.86109888     0.29900
C806        C  0.11902274  0.68792169  0.88777580    -0.21000
C807        C  0.08943617  0.70712573  0.89615103    -0.09000
C808        C  0.08810444  0.74065722  0.87813344     0.29900
F809        F  0.06032381  0.76036853  0.88612711    -0.19500
H810        H  0.11356266  0.77928701  0.83556220     0.18200
H811        H  0.12138243  0.66250162  0.90252331     0.18200
F812        F  0.17433879  0.68185908  0.85391465    -0.19500
C813        C  0.23936436  0.38688582  0.67111417    -0.21000
C814        C  0.23218408  0.35424721  0.65360067    -0.09000
C815        C  0.21737425  0.34995964  0.60554878     0.29900
C816        C  0.20874140  0.37789550  0.57615561    -0.21000
C817        C  0.21458546  0.41081825  0.59395129    -0.09000
C818        C  0.23073904  0.41517568  0.64128747     0.29900
F819        F  0.23646204  0.44652880  0.65975692    -0.19500
H820        H  0.25081330  0.39038234  0.70829586     0.18200
H821        H  0.19663463  0.37370594  0.53958818     0.18200
F822        F  0.20999074  0.31867748  0.58805317    -0.19500
C823        C  0.41319962  0.22497303  0.64111475    -0.21000
C824        C  0.40898313  0.20637608  0.59604164    -0.09000
C825        C  0.37628393  0.19968095  0.57808570     0.29900
C826        C  0.34814340  0.21026629  0.60581570    -0.21000
C827        C  0.35219531  0.22726480  0.65218307    -0.09000
C828        C  0.38480687  0.23525750  0.66939141     0.29900
F829        F  0.38902586  0.25244533  0.71372106    -0.19500
H830        H  0.43829990  0.23067341  0.65492510     0.18200
H831        H  0.32308929  0.20439792  0.59192622     0.18200
F832        F  0.37163750  0.18302035  0.53336008    -0.19500
C833        C  0.11124598  0.25016161  0.83654831    -0.21000
C834        C  0.14075343  0.26943620  0.83472392    -0.09000
C835        C  0.14179797  0.30023158  0.86070880     0.29900
C836        C  0.11405222  0.31150655  0.88844447    -0.21000
C837        C  0.08460026  0.29211003  0.89205456    -0.09000
C838        C  0.08319897  0.26139448  0.86502904     0.29900
F839        F  0.05519261  0.24206050  0.86667460    -0.19500
H840        H  0.11003215  0.22651572  0.81600210     0.18200
H841        H  0.11617578  0.33535181  0.90823914     0.18200
F842        F  0.17000788  0.31935422  0.85958945    -0.19500
C843        C  0.31177030  0.11495130  0.88903221    -0.21000
C844        C  0.29059532  0.08734680  0.89800379    -0.09000
C845        C  0.25778483  0.08782731  0.87685393     0.29900
C846        C  0.24679506  0.11537728  0.84735721    -0.21000
C847        C  0.26799518  0.14300810  0.83966835    -0.09000
C848        C  0.30049307  0.14260881  0.86109951     0.29900
F849        F  0.32123011  0.16937525  0.85568922    -0.19500
H850        H  0.33703348  0.11578105  0.90493005     0.18200
H851        H  0.22167217  0.11535011  0.83088247     0.18200
F852        F  0.23604722  0.06232962  0.88566939    -0.19500
C853        C  0.61693381  0.21568122  0.57840562    -0.21000
C854        C  0.58571335  0.20947015  0.60159307    -0.09000
C855        C  0.58118695  0.21651348  0.65366430     0.29900
C856        C  0.60854019  0.22784580  0.68274550    -0.21000
C857        C  0.64007047  0.23303397  0.65957472    -0.09000
C858        C  0.64382549  0.22778297  0.60696192     0.29900
F859        F  0.67404421  0.23267440  0.58382116    -0.19500
H860        H  0.62058464  0.21067383  0.53806186     0.18200
H861        H  0.60556790  0.23146849  0.72349852     0.18200
F862        F  0.55112673  0.21065327  0.67670303    -0.19500
C863        C  0.75532747  0.38791171  0.67257087    -0.21000
C864        C  0.76189174  0.35458821  0.65661027    -0.09000
C865        C  0.77885732  0.34902081  0.61037367     0.29900
C866        C  0.79095006  0.37603325  0.58221229    -0.21000
C867        C  0.78579973  0.40941955  0.59865916    -0.09000
C868        C  0.76670950  0.41530973  0.64330211     0.29900
F869        F  0.76037643  0.44722156  0.65971927    -0.19500
H870        H  0.74229909  0.39260626  0.70826779     0.18200
H871        H  0.80470154  0.37071812  0.54730538     0.18200
F872        F  0.78527935  0.31716164  0.59380556    -0.19500
C873        C  0.74743815  0.11590819  0.85349711    -0.21000
C874        C  0.72514819  0.14283591  0.84241523    -0.09000
C875        C  0.69167061  0.14134518  0.86019712     0.29900
C876        C  0.68042010  0.11317439  0.88657011    -0.21000
C877        C  0.70240895  0.08604032  0.89761208    -0.09000
C878        C  0.73638084  0.08794124  0.88158107     0.29900
F879        F  0.75887146  0.06292063  0.89296152    -0.19500
H880        H  0.77336391  0.11657789  0.84037442     0.18200
H881        H  0.65446278  0.11313508  0.89965336     0.18200
F882        F  0.66973633  0.16743578  0.85226521    -0.19500
C883        C  0.84856682  0.30004275  0.87079160    -0.21000
C884        C  0.85058557  0.26975043  0.84343014    -0.09000
C885        C  0.88139676  0.25176905  0.84198866     0.27100
C886        C  0.90972492  0.26396590  0.86824394    -0.21000
C887        C  0.90778401  0.29462148  0.89521019    -0.09000
C888        C  0.87674833  0.31250235  0.89619428     0.29900
F889        F  0.87320733  0.34158124  0.92313780    -0.19500
H890        H  0.82504874  0.31434134  0.87180685     0.18200
H891        H  0.93322370  0.24967929  0.86712602     0.18200
F892        F  0.88421554  0.22300882  0.81418872    -0.19500
C893        C  0.75030238  0.61487587  0.65484313    -0.21000
C894        C  0.77091305  0.64338166  0.65788014    -0.09000
C895        C  0.80242139  0.64294608  0.63344530     0.29900
C896        C  0.81348276  0.61436604  0.60733454    -0.21000
C897        C  0.79318116  0.58565630  0.60400004    -0.09000
C898        C  0.76122569  0.58616888  0.62770744     0.29900
F899        F  0.74095807  0.55888713  0.62546015    -0.19500
H900        H  0.72602583  0.61480338  0.67389050     0.18200
H901        H  0.83783973  0.61507246  0.58854667     0.18200
F902        F  0.82262488  0.67031680  0.63514916    -0.19500
C903        C  0.64809021  0.80480161  0.62347890    -0.21000
C904        C  0.64785949  0.77384756  0.64915619    -0.09000
C905        C  0.61832281  0.75455943  0.64873750     0.29900
C906        C  0.58915396  0.76670374  0.62393693    -0.21000
C907        C  0.58903672  0.79840992  0.59994667    -0.09000
C908        C  0.61906223  0.81710981  0.59935556     0.29900
F909        F  0.62075824  0.84692865  0.57412678    -0.19500
H910        H  0.67072657  0.81987099  0.62329597     0.18200
H911        H  0.56658249  0.75156115  0.62397172     0.18200
F912        F  0.61748234  0.72454092  0.67345679    -0.19500
C913        C  0.88803323  0.72795967  0.82005933    -0.21000
C914        C  0.85611669  0.72984678  0.84362808    -0.09000
C915        C  0.85310659  0.72145926  0.89535362     0.29900
C916        C  0.88123466  0.70987821  0.92255395    -0.21000
C917        C  0.91296427  0.70691071  0.89891408    -0.09000
C918        C  0.91652121  0.71686462  0.84776458     0.29900
F919        F  0.94689263  0.71400032  0.82403301    -0.19500
H920        H  0.89056487  0.73402577  0.77993816     0.18200
H921        H  0.87814366  0.70257201  0.96214528     0.18200
F922        F  0.82251986  0.72282088  0.91873768    -0.19500
C923        C  0.72958134  0.88642153  0.82310224    -0.21000
C924        C  0.73146683  0.85421483  0.84536866    -0.09000
C925        C  0.72290767  0.85019910  0.89691412     0.29900
C926        C  0.71116398  0.87772631  0.92509713    -0.21000
C927        C  0.70813736  0.90975150  0.90258563    -0.09000
C928        C  0.71824143  0.91422288  0.85171644     0.29900
F929        F  0.71522667  0.94484499  0.82901801    -0.19500
H930        H  0.73575921  0.88968690  0.78314807     0.18200
H931        H  0.70384181  0.87394109  0.96454263     0.18200
F932        F  0.72431347  0.81932533  0.91920266    -0.19500
loop_ 
_geom_bond_atom_site_label_1 
_geom_bond_atom_site_label_2 
_geom_bond_distance 
_geom_bond_site_symmetry_2 
_ccdc_geom_bond_type 
N1            C6   1.353       .  A
N1            C5   1.354       .  A
N1           H33   1.040       .  S
N2            C9   1.351       .  A
N2           C10   1.353       .  A
N3            C8   1.353       .  A
N3            C7   1.351       .  A
N3           H34   1.039       .  S
N4           C11   1.351       .  A
N4           C12   1.352       .  A
C5           C13   1.387       .  A
C5           C21   1.416       .  A
C6           C22   1.416       .  A
C6           C14   1.387       .  A
C7           C15   1.386       .  A
C7           C24   1.412       .  A
C8           C23   1.414       .  A
C8           C16   1.387       .  A
C9           C21   1.413       .  A
C9           C17   1.387       .  A
C10          C24   1.413       .  A
C10          C18   1.386       .  A
C11          C19   1.387       .  A
C11          C22   1.414       .  A
C12          C20   1.386       .  A
C12          C23   1.413       .  A
C13          C14   1.380       .  A
C13          H25   1.082       .  S
C14          H26   1.082       .  S
C15          C16   1.379       .  A
C15          H27   1.082       .  S
C16          H28   1.082       .  S
C17          C18   1.369       .  A
C17          H29   1.082       .  S
C18          H30   1.082       .  S
C19          C20   1.371       .  A
C19          H31   1.083       .  S
C20          H32   1.082       .  S
C21         C904   1.486       .  S
C22         C894   1.487       .  S
C23         C914   1.485       .  S
C24         C924   1.483       .  S
N35          C40   1.352       .  A
N35          C39   1.355       .  A
N35          H67   1.042       .  S
N36          C43   1.352       .  A
N36          C44   1.351       .  A
N37          C42   1.352       .  A
N37          C41   1.348       .  A
N37          H68   1.039       .  S
N38          C45   1.351       .  A
N38          C46   1.354       .  A
C39          C47   1.387       .  A
C39          C55   1.419       .  A
C40          C56   1.417       .  A
C40          C48   1.387       .  A
C41          C49   1.388       .  A
C41          C58   1.412       .  A
C42          C57   1.413       .  A
C42          C50   1.387       .  A
C43          C55   1.413       .  A
C43          C51   1.386       .  A
C44          C58   1.414       .  A
C44          C52   1.387       .  A
C45          C53   1.386       .  A
C45          C56   1.412       .  A
C46          C54   1.386       .  A
C46          C57   1.416       .  A
C47          C48   1.382       .  A
C47          H59   1.082       .  S
C48          H60   1.082       .  S
C49          C50   1.382       .  A
C49          H61   1.082       .  S
C50          H62   1.082       .  S
C51          C52   1.372       .  A
C51          H63   1.083       .  S
C52          H64   1.082       .  S
C53          C54   1.370       .  A
C53          H65   1.082       .  S
C54          H66   1.082       .  S
C55         C874   1.497       .  S
C56         C884   1.486       .  S
C57         C864   1.490       .  S
C58         C857   1.477       .  S
N69          C74   1.355       .  A
N69          C73   1.353       .  A
N69         H101   1.035       .  S
N70          C77   1.350       .  A
N70          C78   1.351       .  A
N71          C76   1.354       .  A
N71          C75   1.352       .  A
N71         H102   1.033       .  S
N72          C79   1.349       .  A
N72          C80   1.348       .  A
C73          C81   1.386       .  A
C73          C89   1.414       .  A
C74          C90   1.417       .  A
C74          C82   1.388       .  A
C75          C83   1.384       .  A
C75          C92   1.409       .  A
C76          C91   1.416       .  A
C76          C84   1.390       .  A
C77          C89   1.411       .  A
C77          C85   1.387       .  A
C78          C92   1.409       .  A
C78          C86   1.386       .  A
C79          C87   1.386       .  A
C79          C90   1.410       .  A
C80          C88   1.386       .  A
C80          C91   1.410       .  A
C81          C82   1.372       .  A
C81          H93   1.083       .  S
C82          H94   1.082       .  S
C83          C84   1.372       .  A
C83          H95   1.083       .  S
C84          H96   1.082       .  S
C85          C86   1.375       .  A
C85          H97   1.082       .  S
C86          H98   1.082       .  S
C87          C88   1.374       .  A
C87          H99   1.082       .  S
C88         H100   1.082       .  S
C89         C834   1.483       .  S
C90         C814   1.482       .  S
C91         C827   1.479       .  S
C92         C847   1.484       .  S
N103        C108   1.353       .  A
N103        C107   1.350       .  A
N103        H135   1.043       .  S
N104        C111   1.351       .  A
N104        C112   1.352       .  A
N105        C110   1.350       .  A
N105        C109   1.350       .  A
N105        H136   1.041       .  S
N106        C113   1.349       .  A
N106        C114   1.350       .  A
C107        C115   1.389       .  A
C107        C123   1.415       .  A
C108        C124   1.412       .  A
C108        C116   1.386       .  A
C109        C117   1.386       .  A
C109        C126   1.410       .  A
C110        C125   1.414       .  A
C110        C118   1.388       .  A
C111        C123   1.414       .  A
C111        C119   1.387       .  A
C112        C126   1.413       .  A
C112        C120   1.386       .  A
C113        C121   1.384       .  A
C113        C124   1.407       .  A
C114        C122   1.387       .  A
C114        C125   1.413       .  A
C115        C116   1.381       .  A
C115        H127   1.082       .  S
C116        H128   1.082       .  S
C117        C118   1.382       .  A
C117        H129   1.082       .  S
C118        H130   1.082       .  S
C119        C120   1.372       .  A
C119        H131   1.082       .  S
C120        H132   1.082       .  S
C121        C122   1.373       .  A
C121        H133   1.082       .  S
C122        H134   1.082       .  S
C123        C797   1.487       .  S
C124        C804   1.488       .  S
C125        C784   1.490       .  S
C126        C774   1.484       .  S
N137        C142   1.351       .  A
N137        C141   1.351       .  A
N137        H169   1.033       .  S
N138        C145   1.354       .  A
N138        C146   1.351       .  A
N139        C144   1.355       .  A
N139        C143   1.355       .  A
N139        H170   1.041       .  S
N140        C147   1.352       .  A
N140        C148   1.350       .  A
C141        C149   1.388       .  A
C141        C157   1.415       .  A
C142        C158   1.416       .  A
C142        C150   1.387       .  A
C143        C151   1.387       .  A
C143        C160   1.418       .  A
C144        C159   1.417       .  A
C144        C152   1.387       .  A
C145        C157   1.418       .  A
C145        C153   1.387       .  A
C146        C160   1.417       .  A
C146        C154   1.387       .  A
C147        C155   1.388       .  A
C147        C158   1.416       .  A
C148        C156   1.386       .  A
C148        C159   1.412       .  A
C149        C150   1.378       .  A
C149        H161   1.082       .  S
C150        H162   1.082       .  S
C151        C152   1.378       .  A
C151        H163   1.082       .  S
C152        H164   1.082       .  S
C153        C154   1.370       .  A
C153        H165   1.082       .  S
C154        H166   1.083       .  S
C155        C156   1.369       .  A
C155        H167   1.082       .  S
C156        H168   1.083       .  S
C157        C757   1.482       .  S
C158        C764   1.481       .  S
C159        C747   1.486       .  S
C160        C737   1.491       .  S
N171        C176   1.352       .  A
N171        C175   1.355       .  A
N171        H203   1.037       .  S
N172        C179   1.351       .  A
N172        C180   1.350       .  A
N173        C178   1.355       .  A
N173        C177   1.355       .  A
N173        H204   1.039       .  S
N174        C181   1.353       .  A
N174        C182   1.353       .  A
C175        C183   1.388       .  A
C175        C191   1.417       .  A
C176        C192   1.416       .  A
C176        C184   1.387       .  A
C177        C185   1.389       .  A
C177        C194   1.419       .  A
C178        C193   1.415       .  A
C178        C186   1.385       .  A
C179        C191   1.413       .  A
C179        C187   1.386       .  A
C180        C194   1.412       .  A
C180        C188   1.387       .  A
C181        C189   1.386       .  A
C181        C192   1.415       .  A
C182        C190   1.385       .  A
C182        C193   1.414       .  A
C183        C184   1.374       .  A
C183        H195   1.082       .  S
C184        H196   1.083       .  S
C185        C186   1.371       .  A
C185        H197   1.082       .  S
C186        H198   1.082       .  S
C187        C188   1.375       .  A
C187        H199   1.082       .  S
C188        H200   1.082       .  S
C189        C190   1.374       .  A
C189        H201   1.082       .  S
C190        H202   1.082       .  S
C191        C697   1.486       .  S
C192        C717   1.487       .  S
C193        C724   1.493       .  S
C194        C704   1.482       .  S
N205        C210   1.351       .  A
N205        C209   1.353       .  A
N205        H237   1.034       .  S
N206        C213   1.353       .  A
N206        C214   1.351       .  A
N207        C212   1.354       .  A
N207        C211   1.352       .  A
N207        H238   1.039       .  S
N208        C215   1.351       .  A
N208        C216   1.352       .  A
C209        C217   1.388       .  A
C209        C225   1.416       .  A
C210        C226   1.413       .  A
C210        C218   1.387       .  A
C211        C219   1.387       .  A
C211        C228   1.413       .  A
C212        C227   1.414       .  A
C212        C220   1.386       .  A
C213        C225   1.416       .  A
C213        C221   1.387       .  A
C214        C228   1.413       .  A
C214        C222   1.386       .  A
C215        C223   1.387       .  A
C215        C226   1.414       .  A
C216        C224   1.385       .  A
C216        C227   1.412       .  A
C217        C218   1.377       .  A
C217        H229   1.082       .  S
C218        H230   1.082       .  S
C219        C220   1.377       .  A
C219        H231   1.082       .  S
C220        H232   1.082       .  S
C221        C222   1.370       .  A
C221        H233   1.082       .  S
C222        H234   1.082       .  S
C223        C224   1.370       .  A
C223        H235   1.082       .  S
C224        H236   1.082       .  S
C225        C687   1.486       .  S
C226        C674   1.477       .  S
C227        C657   1.489       .  S
C228        C664   1.480       .  S
Fe239       O255   2.090       .  S
Fe239       O245   2.040       .  S
Fe239       O252   2.071       .  S
Fe239       O244   2.070       .  S
Fe239       O250   1.948       .  S
Fe240       O243   2.059       .  S
Fe240       O247   2.065       .  S
Fe240       O251   2.101       .  S
Fe240       O256   2.048       .  S
Fe240       O250   1.942       .  S
Fe241       O259   2.084       .  S
Fe241       O246   2.093       .  S
Fe241       O253   2.094       .  S
Fe241       O242   2.078       .  S
Fe241       O250   1.960       .  S
O242        C249   1.272       .  A
O243        C257   1.268       .  A
O244        C249   1.270       .  A
O245        C248   1.268       .  A
O246        C258   1.276       .  A
O247        C260   1.267       .  A
C248        C744   1.475       .  S
C248        O253   1.275       .  A
C249        C777   1.472       .  S
O251        C254   1.276       .  A
O252        C254   1.270       .  A
C254        C634   1.503       .  S
O255        C260   1.273       .  A
O256        C258   1.271       .  A
C257        C694   1.477       .  S
C257        O259   1.272       .  A
C258        C907   1.479       .  S
C260        C647   1.490       .  S
Fe261       O277   2.063   1_556  S
Fe261       O267   2.069   1_556  S
Fe261       O274   2.085       .  S
Fe261       O266   2.050       .  S
Fe261       O272   1.949   1_546  S
Fe262       O265   2.049       .  S
Fe262       O269   2.083       .  S
Fe262       O273   2.083   1_554  S
Fe262       O278   2.066   1_554  S
Fe262       O272   1.948       .  S
Fe263       O281   2.091       .  S
Fe263       O268   2.071   1_554  S
Fe263       O275   2.070   1_565  S
Fe263       O264   2.093   1_564  S
Fe263       O272   1.961       .  S
O264        C271   1.273       .  A
O265        C279   1.268       .  A
O266        C271   1.269       .  A
O267        C270   1.272       .  A
O268        C280   1.272       .  A
O269        C282   1.272   1_565  A
C270        C684   1.469       .  S
C270        O275   1.271       .  A
C271        C877   1.487       .  S
O273        C276   1.272       .  A
O274        C276   1.273   1_545  A
C276        C627   1.504       .  S
O277        C282   1.269       .  A
O278        C280   1.271       .  A
C279        C714   1.480       .  S
C279        O281   1.273       .  A
C280        C927   1.470       .  S
C282        C617   1.479       .  S
Fe283       O299   2.069   1_554  S
Fe283       O289   2.042   1_554  S
Fe283       O296   2.075       .  S
Fe283       O288   2.034       .  S
Fe283       O294   1.959       .  S
Fe284       O287   2.032   1_554  S
Fe284       O291   2.087   1_554  S
Fe284       O295   2.058       .  S
Fe284       O300   2.063       .  S
Fe284       O294   1.959   1_565  S
Fe285       O303   2.087   1_544  S
Fe285       O290   2.075   1_545  S
Fe285       O297   2.077   1_554  S
Fe285       O286   2.077       .  S
Fe285       O294   1.982       .  S
O286        C293   1.271       .  A
O287        C301   1.266       .  A
O288        C293   1.266       .  A
O289        C292   1.267       .  A
O290        C302   1.270       .  A
O291        C304   1.271   1_565  A
C292        C844   1.483       .  S
C292        O297   1.272       .  A
C293        C604   1.478       .  S
O295        C298   1.267       .  A
O296        C298   1.269   1_545  A
C298        C584   1.477       .  S
O299        C304   1.267       .  A
O300        C302   1.270       .  A
C301        C794   1.481       .  S
C301        O303   1.273       .  A
C302        C767   1.475       .  S
C304        C594   1.501       .  S
Fe305       O321   2.113       .  S
Fe305       O311   2.043       .  S
Fe305       O318   2.065       .  S
Fe305       O310   2.075       .  S
Fe305       O316   1.945       .  S
Fe306       O309   2.060       .  S
Fe306       O313   2.063       .  S
Fe306       O317   2.082       .  S
Fe306       O322   2.042       .  S
Fe306       O316   1.953       .  S
Fe307       O325   2.064       .  S
Fe307       O312   2.100       .  S
Fe307       O319   2.085       .  S
Fe307       O308   2.074       .  S
Fe307       O316   1.960       .  S
O308        C315   1.272       .  A
O309        C323   1.268       .  A
O310        C315   1.272       .  A
O311        C314   1.267       .  A
O312        C324   1.276       .  A
O313        C326   1.269       .  A
C314        C824   1.465       .  S
C314        O319   1.272       .  A
C315        C574   1.471       .  S
O317        C320   1.271       .  A
O318        C320   1.266       .  A
C320        C564   1.489       .  S
O321        C326   1.280       .  A
O322        C324   1.269       .  A
C323        C854   1.462       .  S
C323        O325   1.267       .  A
C324        C667   1.475       .  S
C326        C557   1.506       .  S
C327        C567   1.569   1_565  S
C327        C587   1.565       .  S
C327        C614   1.568   1_565  S
C327        C644   1.571       .  S
C328        C554   1.567       .  S
C328        C597   1.564       .  S
C328        C624   1.567       .  S
C328        C637   1.564   1_545  S
Fe329       O345   2.084       .  S
Fe329       O335   2.062       .  S
Fe329       O342   2.101       .  S
Fe329       O334   2.043       .  S
Fe329       O340   1.948       .  S
Fe330       O333   2.037       .  S
Fe330       O337   2.096       .  S
Fe330       O341   2.063       .  S
Fe330       O346   2.076       .  S
Fe330       O340   1.946       .  S
Fe331       O349   2.104       .  S
Fe331       O336   2.077       .  S
Fe331       O343   2.079       .  S
Fe331       O332   2.098       .  S
Fe331       O340   1.969       .  S
O332        C339   1.275       .  A
O333        C347   1.266       .  A
O334        C339   1.269       .  A
O335        C338   1.271       .  A
O336        C348   1.272       .  A
O337        C350   1.275       .  A
C338        C707   1.480       .  S
C338        O343   1.273       .  A
C339        C897   1.480       .  S
O341        C344   1.267       .  A
O342        C344   1.275       .  A
C344        C537   1.488       .  S
O345        C350   1.270       .  A
O346        C348   1.274       .  A
C347        C654   1.483       .  S
C347        O349   1.276       .  A
C348        C867   1.485       .  S
C350        C544   1.503       .  S
Fe351       O367   2.096   1_556  S
Fe351       O357   2.050   1_556  S
Fe351       O364   2.085       .  S
Fe351       O356   2.068       .  S
Fe351       O362   1.952   1_655  S
Fe352       O355   2.054   1_556  S
Fe352       O359   2.078   1_556  S
Fe352       O363   2.087       .  S
Fe352       O368   2.058       .  S
Fe352       O362   1.959       .  S
Fe353       O371   2.076   1_656  S
Fe353       O358   2.094   1_655  S
Fe353       O365   2.096   1_556  S
Fe353       O354   2.076       .  S
Fe353       O362   1.965   1_655  S
O354        C361   1.273       .  A
O355        C369   1.268       .  A
O356        C361   1.272       .  A
O357        C360   1.268       .  A
O358        C370   1.275       .  A
O359        C372   1.272       .  A
C360        C727   1.487       .  S
C360        O365   1.275       .  A
C361        C917   1.472       .  S
O363        C366   1.271       .  A
O364        C366   1.270   1_655  A
C366        C527   1.498       .  S
O367        C372   1.275   1_655  A
O368        C370   1.272       .  A
C369        C754   1.475       .  S
C369        O371   1.272       .  A
C370        C807   1.487       .  S
C372        C514   1.494       .  S
Fe373       O389   2.083       .  S
Fe373       O379   2.051       .  S
Fe373       O386   2.077   1_556  S
Fe373       O378   2.052   1_556  S
Fe373       O384   1.949       .  S
Fe374       O377   2.047   1_554  S
Fe374       O381   2.064   1_554  S
Fe374       O385   2.088       .  S
Fe374       O390   2.048       .  S
Fe374       O384   1.941   1_454  S
Fe375       O393   2.079   1_655  S
Fe375       O380   2.103   1_656  S
Fe375       O387   2.099       .  S
Fe375       O376   2.074   1_556  S
Fe375       O384   1.962       .  S
O376        C383   1.272       .  A
O377        C391   1.267       .  A
O378        C383   1.268       .  A
O379        C382   1.270       .  A
O380        C392   1.278       .  A
O381        C394   1.266   1_455  A
C382        C887   1.483       .  S
C382        O387   1.276       .  A
C383        C677   1.469       .  S
O385        C388   1.273   1_455  A
O386        C388   1.270       .  A
C388        C484   1.495       .  S
O389        C394   1.272       .  A
O390        C392   1.270       .  A
C391        C837   1.485       .  S
C391        O393   1.272       .  A
C392        C504   1.488       .  S
C394        C494   1.486       .  S
Fe395       O411   2.075       .  S
Fe395       O401   2.065       .  S
Fe395       O408   2.082       .  S
Fe395       O400   2.050       .  S
Fe395       O406   1.944       .  S
Fe396       O399   2.043       .  S
Fe396       O403   2.090       .  S
Fe396       O407   2.078       .  S
Fe396       O412   2.064       .  S
Fe396       O406   1.950       .  S
Fe397       O415   2.091       .  S
Fe397       O402   2.076       .  S
Fe397       O409   2.079       .  S
Fe397       O398   2.085       .  S
Fe397       O406   1.968       .  S
O398        C405   1.276       .  A
O399        C413   1.267       .  A
O400        C405   1.269       .  A
O401        C404   1.269       .  A
O402        C414   1.271       .  A
O403        C416   1.272       .  A
C404        C787   1.471       .  S
C404        O409   1.271       .  A
C405        C734   1.489       .  S
O407        C410   1.270       .  A
O408        C410   1.270       .  A
C410        C464   1.499       .  S
O411        C416   1.272       .  A
O412        C414   1.270       .  A
C413        C817   1.478       .  S
C413        O415   1.276       .  A
C414        C477   1.467       .  S
C416        C457   1.496       .  S
C417        C467   1.579       .  S
C417        C487   1.576   1_455  S
C417        C517   1.591       .  S
C417        C547   1.595   1_455  S
C418        C454   1.571       .  S
C418        C497   1.569   1_455  S
C418        C524   1.577       .  S
C418        C534   1.576   1_455  S
N419        C424   1.351       .  A
N419        C423   1.352       .  A
N419        H451   1.042       .  S
N420        C427   1.352       .  A
N420        C428   1.349       .  A
N421        C426   1.354       .  A
N421        C425   1.349       .  A
N421        H452   1.041       .  S
N422        C429   1.350       .  A
N422        C430   1.353       .  A
C423        C431   1.384       .  A
C423        C439   1.410       .  A
C424        C440   1.416       .  A
C424        C432   1.390       .  A
C425        C433   1.387       .  A
C425        C442   1.412       .  A
C426        C441   1.417       .  A
C426        C434   1.388       .  A
C427        C439   1.411       .  A
C427        C435   1.385       .  A
C428        C442   1.412       .  A
C428        C436   1.387       .  A
C429        C437   1.387       .  A
C429        C440   1.416       .  A
C430        C438   1.385       .  A
C430        C441   1.415       .  A
C431        C432   1.376       .  A
C431        H443   1.083       .  S
C432        H444   1.082       .  S
C433        C434   1.377       .  A
C433        H445   1.083       .  S
C434        H446   1.082       .  S
C435        C436   1.377       .  A
C435        H447   1.082       .  S
C436        H448   1.082       .  S
C437        C438   1.376       .  A
C437        H449   1.082       .  S
C438        H450   1.082       .  S
C439        C507   1.493       .  S
C440        C474   1.493       .  S
C441        C577   1.501       .  S
C442        C607   1.483       .  S
C453        C454   1.414       .  A
C453        C458   1.415       .  A
C453        H460   1.076       .  S
C454        C455   1.420       .  A
C455        C456   1.392       .  A
C455        F462   1.357       .  S
C456        C457   1.400       .  A
C456        H461   1.083       .  S
C457        C458   1.412       .  A
C458        F459   1.357       .  S
C463        C464   1.403       .  A
C463        C468   1.402       .  A
C463        H470   1.083       .  S
C464        C465   1.404       .  A
C465        C466   1.406       .  A
C465        F472   1.357       .  S
C466        C467   1.420       .  A
C466        H471   1.081       .  S
C467        C468   1.430       .  A
C468        F469   1.356       .  S
C473        C474   1.403       .  A
C473        C478   1.393       .  A
C473        H480   1.083       .  S
C474        C475   1.413       .  A
C475        C476   1.400       .  A
C475        F482   1.358       .  S
C476        C477   1.401       .  A
C476        H481   1.083       .  S
C477        C478   1.404       .  A
C478        F479   1.358       .  S
C483        C484   1.401       .  A
C483        C488   1.406       .  A
C483        H490   1.083       .  S
C484        C485   1.405   1_655  A
C485        C486   1.401       .  A
C485        F492   1.358       .  S
C486        C487   1.420   1_455  A
C486        H491   1.079       .  S
C487        C488   1.424       .  A
C488        F489   1.353       .  S
C493        C494   1.409   1_455  A
C493        C498   1.409       .  A
C493        H500   1.083       .  S
C494        C495   1.399       .  A
C495        C496   1.394       .  A
C495        F502   1.358       .  S
C496        C497   1.421       .  A
C496        H501   1.082       .  S
C497        C498   1.415   1_655  A
C498        F499   1.354       .  S
C503        C504   1.409       .  A
C503        C508   1.406       .  A
C503        H510   1.083       .  S
C504        C505   1.411       .  A
C505        C506   1.394       .  A
C505        F512   1.358       .  S
C506        C507   1.402       .  A
C506        H511   1.084       .  S
C507        C508   1.407       .  A
C508        F509   1.357       .  S
C513        C514   1.409   1_655  A
C513        C518   1.416       .  A
C513        H520   1.083       .  S
C514        C515   1.397       .  A
C515        C516   1.402       .  A
C515        F522   1.358       .  S
C516        C517   1.425       .  A
C516        H521   1.076       .  S
C517        C518   1.418   1_455  A
C518        F519   1.354       .  S
C523        C524   1.410   1_655  A
C523        C528   1.410       .  A
C523        H530   1.076       .  S
C524        C525   1.425       .  A
C525        C526   1.402       .  A
C525        F532   1.358       .  S
C526        C527   1.402       .  A
C526        H531   1.083       .  S
C527        C528   1.410   1_455  A
C528        F529   1.357       .  S
C533        C534   1.423       .  A
C533        C538   1.398       .  A
C533        H540   1.082       .  S
C534        C535   1.417       .  A
C535        C536   1.412       .  A
C535        F542   1.354       .  S
C536        C537   1.407       .  A
C536        H541   1.083       .  S
C537        C538   1.399       .  A
C538        F539   1.358       .  S
C543        C544   1.411       .  A
C543        C548   1.419       .  A
C543        H550   1.083       .  S
C544        C545   1.399       .  A
C545        C546   1.396       .  A
C545        F552   1.358       .  S
C546        C547   1.421       .  A
C546        H551   1.072       .  S
C547        C548   1.424       .  A
C548        F549   1.354       .  S
C553        C554   1.415       .  A
C553        C558   1.408       .  A
C553        H560   1.081       .  S
C554        C555   1.422       .  A
C555        C556   1.405       .  A
C555        F562   1.356       .  S
C556        C557   1.404       .  A
C556        H561   1.083       .  S
C557        C558   1.414       .  A
C558        F559   1.358       .  S
C563        C564   1.400       .  A
C563        C568   1.396       .  A
C563        H570   1.083       .  S
C564        C565   1.410       .  A
C565        C566   1.405       .  A
C565        F572   1.358       .  S
C566        C567   1.412       .  A
C566        H571   1.074       .  S
C567        C568   1.422       .  A
C568        F569   1.357       .  S
C573        C574   1.401       .  A
C573        C578   1.404       .  A
C573        H580   1.083       .  S
C574        C575   1.404       .  A
C575        C576   1.398       .  A
C575        F582   1.358       .  S
C576        C577   1.406       .  A
C576        H581   1.083       .  S
C577        C578   1.413       .  A
C578        F579   1.357       .  S
C583        C584   1.394       .  A
C583        C588   1.394       .  A
C583        H590   1.084       .  S
C584        C585   1.406   1_565  A
C585        C586   1.405       .  A
C585        F592   1.357       .  S
C586        C587   1.411   1_545  A
C586        H591   1.074       .  S
C587        C588   1.425       .  A
C588        F589   1.356       .  S
C593        C594   1.409       .  A
C593        C598   1.407       .  A
C593        H600   1.083       .  S
C594        C595   1.406   1_545  A
C595        C596   1.400       .  A
C595        F602   1.357       .  S
C596        C597   1.417   1_565  A
C596        H601   1.082       .  S
C597        C598   1.420       .  A
C598        F599   1.356       .  S
C603        C604   1.406       .  A
C603        C608   1.387       .  A
C603        H610   1.083       .  S
C604        C605   1.410       .  A
C605        C606   1.401       .  A
C605        F612   1.357       .  S
C606        C607   1.404       .  A
C606        H611   1.083       .  S
C607        C608   1.404       .  A
C608        F609   1.358       .  S
C613        C614   1.412   1_565  A
C613        C618   1.408       .  A
C613        H620   1.074       .  S
C614        C615   1.426       .  A
C615        C616   1.395       .  A
C615        F622   1.356       .  S
C616        C617   1.394       .  A
C616        H621   1.084       .  S
C617        C618   1.407   1_545  A
C618        F619   1.357       .  S
C623        C624   1.419   1_565  A
C623        C628   1.408       .  A
C623        H630   1.081       .  S
C624        C625   1.419       .  A
C625        C626   1.402       .  A
C625        F632   1.356       .  S
C626        C627   1.406   1_545  A
C626        H631   1.083       .  S
C627        C628   1.410       .  A
C628        F629   1.357       .  S
C633        C634   1.406       .  A
C633        C638   1.403       .  A
C633        H640   1.083       .  S
C634        C635   1.411       .  A
C635        C636   1.406       .  A
C635        F642   1.357       .  S
C636        C637   1.415       .  A
C636        H641   1.081       .  S
C637        C638   1.419       .  A
C638        F639   1.357       .  S
C643        C644   1.413       .  A
C643        C648   1.408       .  A
C643        H650   1.074       .  S
C644        C645   1.425       .  A
C645        C646   1.396       .  A
C645        F652   1.357       .  S
C646        C647   1.397       .  A
C646        H651   1.083       .  S
C647        C648   1.410       .  A
C648        F649   1.358       .  S
C653        C654   1.408       .  A
C653        C658   1.392       .  A
C653        H660   1.083       .  S
C654        C655   1.408       .  A
C655        C656   1.405       .  A
C655        F662   1.357       .  S
C656        C657   1.406       .  A
C656        H661   1.083       .  S
C657        C658   1.403       .  A
C658        F659   1.358       .  S
C663        C664   1.398       .  A
C663        C668   1.391       .  A
C663        H670   1.084       .  S
C664        C665   1.405       .  A
C665        C666   1.403       .  A
C665        F672   1.357       .  S
C666        C667   1.405       .  A
C666        H671   1.083       .  S
C667        C668   1.409       .  A
C668        F669   1.358       .  S
C673        C674   1.406       .  A
C673        C678   1.402       .  A
C673        H680   1.083       .  S
C674        C675   1.399       .  A
C675        C676   1.389       .  A
C675        F682   1.358       .  S
C676        C677   1.406       .  A
C676        H681   1.084       .  S
C677        C678   1.404       .  A
C678        F679   1.357       .  S
C683        C684   1.402       .  A
C683        C688   1.404       .  A
C683        H690   1.083       .  S
C684        C685   1.406       .  A
C685        C686   1.392       .  A
C685        F692   1.358       .  S
C686        C687   1.399       .  A
C686        H691   1.083       .  S
C687        C688   1.410       .  A
C688        F689   1.357       .  S
C693        C694   1.404       .  A
C693        C698   1.407       .  A
C693        H700   1.083       .  S
C694        C695   1.408       .  A
C695        C696   1.393       .  A
C695        F702   1.358       .  S
C696        C697   1.398       .  A
C696        H701   1.083       .  S
C697        C698   1.408       .  A
C698        F699   1.357       .  S
C703        C704   1.405       .  A
C703        C708   1.405       .  A
C703        H710   1.083       .  S
C704        C705   1.399       .  A
C705        C706   1.390       .  A
C705        F712   1.358       .  S
C706        C707   1.407       .  A
C706        H711   1.084       .  S
C707        C708   1.408       .  A
C708        F709   1.357       .  S
C713        C714   1.408       .  A
C713        C718   1.405       .  A
C713        H720   1.083       .  S
C714        C715   1.408       .  A
C715        C716   1.391       .  A
C715        F722   1.358       .  S
C716        C717   1.400       .  A
C716        H721   1.084       .  S
C717        C718   1.407       .  A
C718        F719   1.357       .  S
C723        C724   1.402       .  A
C723        C728   1.395       .  A
C723        H730   1.084       .  S
C724        C725   1.407       .  A
C725        C726   1.405       .  A
C725        F732   1.357       .  S
C726        C727   1.407       .  A
C726        H731   1.083       .  S
C727        C728   1.411       .  A
C728        F729   1.358       .  S
C733        C734   1.410       .  A
C733        C738   1.408       .  A
C733        H740   1.083       .  S
C734        C735   1.414       .  A
C735        C736   1.387       .  A
C735        F742   1.358       .  S
C736        C737   1.398       .  A
C736        H741   1.084       .  S
C737        C738   1.408       .  A
C738        F739   1.357       .  S
C743        C744   1.405       .  A
C743        C748   1.404       .  A
C743        H750   1.083       .  S
C744        C745   1.409       .  A
C745        C746   1.391       .  A
C745        F752   1.359       .  S
C746        C747   1.400       .  A
C746        H751   1.084       .  S
C747        C748   1.406       .  A
C748        F749   1.357       .  S
C753        C754   1.407       .  A
C753        C758   1.390       .  A
C753        H760   1.084       .  S
C754        C755   1.406       .  A
C755        C756   1.405       .  A
C755        F762   1.357       .  S
C756        C757   1.406       .  A
C756        H761   1.083       .  S
C757        C758   1.399       .  A
C758        F759   1.358       .  S
C763        C764   1.397       .  A
C763        C768   1.390       .  A
C763        H770   1.084       .  S
C764        C765   1.407       .  A
C765        C766   1.406       .  A
C765        F772   1.358       .  S
C766        C767   1.406       .  A
C766        H771   1.083       .  S
C767        C768   1.407       .  A
C768        F769   1.358       .  S
C773        C774   1.401       .  A
C773        C778   1.396       .  A
C773        H780   1.084       .  S
C774        C775   1.407       .  A
C775        C776   1.403       .  A
C775        F782   1.357       .  S
C776        C777   1.402       .  A
C776        H781   1.083       .  S
C777        C778   1.407       .  A
C778        F779   1.358       .  S
C783        C784   1.403       .  A
C783        C788   1.398       .  A
C783        H790   1.084       .  S
C784        C785   1.410       .  A
C785        C786   1.400       .  A
C785        F792   1.357       .  S
C786        C787   1.400       .  A
C786        H791   1.083       .  S
C787        C788   1.408       .  A
C788        F789   1.358       .  S
C793        C794   1.407       .  A
C793        C798   1.388       .  A
C793        H800   1.083       .  S
C794        C795   1.410       .  A
C795        C796   1.403       .  A
C795        F802   1.357       .  S
C796        C797   1.406       .  A
C796        H801   1.083       .  S
C797        C798   1.403       .  A
C798        F799   1.358       .  S
C803        C804   1.404       .  A
C803        C808   1.406       .  A
C803        H810   1.083       .  S
C804        C805   1.404       .  A
C805        C806   1.394       .  A
C805        F812   1.358       .  S
C806        C807   1.406       .  A
C806        H811   1.083       .  S
C807        C808   1.412       .  A
C808        F809   1.357       .  S
C813        C814   1.406       .  A
C813        C818   1.406       .  A
C813        H820   1.083       .  S
C814        C815   1.398       .  A
C815        C816   1.389       .  A
C815        F822   1.358       .  S
C816        C817   1.409       .  A
C816        H821   1.084       .  S
C817        C818   1.405       .  A
C818        F819   1.356       .  S
C823        C824   1.403       .  A
C823        C828   1.402       .  A
C823        H830   1.083       .  S
C824        C825   1.405       .  A
C825        C826   1.390       .  A
C825        F832   1.358       .  S
C826        C827   1.399       .  A
C826        H831   1.084       .  S
C827        C828   1.406       .  A
C828        F829   1.357       .  S
C833        C834   1.405       .  A
C833        C838   1.405       .  A
C833        H840   1.083       .  S
C834        C835   1.400       .  A
C835        C836   1.386       .  A
C835        F842   1.358       .  S
C836        C837   1.408       .  A
C836        H841   1.083       .  S
C837        C838   1.411       .  A
C838        F839   1.357       .  S
C843        C844   1.408       .  A
C843        C848   1.388       .  A
C843        H850   1.083       .  S
C844        C845   1.410       .  A
C845        C846   1.403       .  A
C845        F852   1.357       .  S
C846        C847   1.404       .  A
C846        H851   1.083       .  S
C847        C848   1.402       .  A
C848        F849   1.358       .  S
C853        C854   1.402       .  A
C853        C858   1.390       .  A
C853        H860   1.084       .  S
C854        C855   1.403       .  A
C855        C856   1.401       .  A
C855        F862   1.357       .  S
C856        C857   1.406       .  A
C856        H861   1.083       .  S
C857        C858   1.401       .  A
C858        F859   1.358       .  S
C863        C864   1.408       .  A
C863        C868   1.410       .  A
C863        H870   1.083       .  S
C864        C865   1.401       .  A
C865        C866   1.392       .  A
C865        F872   1.357       .  S
C866        C867   1.405       .  A
C866        H871   1.084       .  S
C867        C868   1.410       .  A
C868        F869   1.357       .  S
C873        C874   1.407       .  A
C873        C878   1.407       .  A
C873        H880   1.083       .  S
C874        C875   1.407       .  A
C875        C876   1.393       .  A
C875        F882   1.358       .  S
C876        C877   1.405       .  A
C876        H881   1.083       .  S
C877        C878   1.412       .  A
C878        F879   1.357       .  S
C883        C884   1.401       .  A
C883        C888   1.394       .  A
C883        H890   1.084       .  S
C884        C885   1.405       .  A
C885        C886   1.405       .  A
C885        F892   1.357       .  S
C886        C887   1.408       .  A
C886        H891   1.083       .  S
C887        C888   1.410       .  A
C888        F889   1.358       .  S
C893        C894   1.405       .  A
C893        C898   1.406       .  A
C893        H900   1.083       .  S
C894        C895   1.402       .  A
C895        C896   1.390       .  A
C895        F902   1.358       .  S
C896        C897   1.405       .  A
C896        H901   1.083       .  S
C897        C898   1.409       .  A
C898        F899   1.357       .  S
C903        C904   1.401       .  A
C903        C908   1.393       .  A
C903        H910   1.084       .  S
C904        C905   1.406       .  A
C905        C906   1.403       .  A
C905        F912   1.357       .  S
C906        C907   1.407       .  A
C906        H911   1.083       .  S
C907        C908   1.409       .  A
C908        F909   1.358       .  S
C913        C914   1.407       .  A
C913        C918   1.405       .  A
C913        H920   1.083       .  S
C914        C915   1.400       .  A
C915        C916   1.393       .  A
C915        F922   1.357       .  S
C916        C917   1.404       .  A
C916        H921   1.084       .  S
C917        C918   1.404       .  A
C918        F919   1.357       .  S
C923        C924   1.406       .  A
C923        C928   1.402       .  A
C923        H930   1.083       .  S
C924        C925   1.402       .  A
C925        C926   1.393       .  A
C925        F932   1.358       .  S
C926        C927   1.405       .  A
C926        H931   1.084       .  S
C927        C928   1.403       .  A
C928        F929   1.357       .  S
