geometry optimzed in LAMMPS
_audit_creation_date              2020-11-30 
_audit_creation_method            'lammps2cif' 
_symmetry_space_group_name_H-M    'P1' 
_symmetry_Int_Tables_number       1 
_symmetry_cell_setting            triclinic 
loop_ 
_symmetry_equiv_pos_as_xyz 
  x,y,z 
_cell_length_a                    31.42842812 
_cell_length_b                    31.427075066344372 
_cell_length_c                    31.518840924689854 
_cell_angle_alpha                 91.10263718403418 
_cell_angle_beta                  88.99816331930627 
_cell_angle_gamma                 92.01146826483024 
loop_ 
_atom_site_label 
_atom_site_type_symbol 
_atom_site_fract_x 
_atom_site_fract_y 
_atom_site_fract_z 
_atom_site_charge 
N1          N  0.56345542  0.50870166  0.08707275    -0.05600
N2          N  0.59209784  0.49469904  0.11338891    -0.57700
N3          N  0.51284233  0.59446539  0.05724139    -0.05200
N4          N  0.51063760  0.63595714  0.06160782    -0.59800
N5          N  0.49186914  0.57463009  0.08793138    -0.04800
N6          N  0.47479407  0.60303122  0.11429309    -0.57700
N7          N  0.58262584  0.53009653  0.05632065    -0.04500
N8          N  0.62409469  0.53137989  0.06094198    -0.60200
C9          C  0.62980355  0.50936828  0.09648887     0.96600
C10         C  0.48684675  0.64101986  0.09694332     0.96400
N11         N  0.49253549  0.57486969  0.92894257    -0.05700
N12         N  0.47520819  0.60348584  0.90449100    -0.58300
N13         N  0.58384618  0.53032019  0.95766706    -0.03900
N14         N  0.62552857  0.53002788  0.95373163    -0.59500
N15         N  0.56543172  0.50875800  0.92646636    -0.05800
N16         N  0.59488456  0.49288031  0.90056036    -0.58500
N17         N  0.51293340  0.59452668  0.96013563    -0.03500
N18         N  0.50989153  0.63596055  0.95801661    -0.59600
Mn19       Mn  0.54857084  0.56260606  0.00774518     1.18400
C20         C  0.48648520  0.64157032  0.92342250     0.98700
C21         C  0.63226422  0.50680919  0.91807357     0.99400
N22         N  0.42134623  0.49802211  0.08645083    -0.05800
N23         N  0.39092612  0.51459064  0.11081814    -0.62100
N24         N  0.47571587  0.41118243  0.05441127    -0.04600
N25         N  0.48081214  0.36990646  0.05659251    -0.62800
N26         N  0.49481114  0.43181837  0.08579991    -0.05300
N27         N  0.51347536  0.40426311  0.11029925    -0.62400
N28         N  0.40403136  0.47540910  0.05533345    -0.04200
N29         N  0.36235448  0.47621090  0.05740044    -0.63100
Mn30       Mn  0.49257916  0.50327676  0.08920651     1.10700
C31         C  0.35420890  0.50031549  0.09207123     0.99900
C32         C  0.50479792  0.36579133  0.09109548     1.00000
N33         N  0.49683793  0.43215236  0.92631032    -0.05300
N34         N  0.51668333  0.40480813  0.90090480    -0.60700
N35         N  0.40484034  0.47395678  0.95844765    -0.04600
N36         N  0.36315263  0.47274560  0.95542977    -0.57400
N37         N  0.42299516  0.49687283  0.92822487    -0.05900
N38         N  0.39329155  0.51197119  0.90372836    -0.60200
N39         N  0.47697246  0.41147316  0.95713161    -0.04900
N40         N  0.48266406  0.37034120  0.95373994    -0.57400
Mn41       Mn  0.49427943  0.50328410  0.92508360     1.20200
Mn42       Mn  0.43996432  0.44240959  0.00642019     1.10100
Cl43       Cl  0.49384100  0.50296088  0.00710874    -0.85400
C44         C  0.50759521  0.36651512  0.91895404     0.96900
C45         C  0.35623045  0.49663286  0.92154409     0.96700
C46         C  0.17613683  0.52123196  0.13719412     0.03700
C47         C  0.14451547  0.51917155  0.10607712    -0.12500
C48         C  0.10136286  0.50970377  0.11705249     0.01200
C49         C  0.09113114  0.50386609  0.16051260    -0.11000
C50         C  0.12203877  0.51034381  0.19183153     0.03700
C51         C  0.16442772  0.51867002  0.17995487    -0.10400
H52         H  0.15426607  0.52338680  0.07331346     0.09300
H53         H  0.05932492  0.49370525  0.17045349     0.06800
H54         H  0.18874165  0.52054699  0.20397884     0.06700
C55         C  0.80481343  0.48842187  0.14255185     0.03700
C56         C  0.83687211  0.48999667  0.11107275    -0.12500
C57         C  0.87984910  0.48420358  0.12114190     0.01200
C58         C  0.88979554  0.47869904  0.16437960    -0.11000
C59         C  0.85787928  0.48046107  0.19627038     0.03700
C60         C  0.81551771  0.48435872  0.18496936    -0.10400
H61         H  0.82799445  0.49621099  0.07880964     0.09300
H62         H  0.92226884  0.47383852  0.17355925     0.06800
H63         H  0.79083468  0.48534550  0.20941812     0.06700
C64         C  0.12571319  0.49677458  0.82038050     0.03700
C65         C  0.09329910  0.49628335  0.85202456    -0.12500
C66         C  0.10283125  0.50268297  0.89563237     0.01200
C67         C  0.14628234  0.50922554  0.90613192    -0.11000
C68         C  0.17890405  0.50517834  0.87537298     0.03700
C69         C  0.16820830  0.49991325  0.83272107    -0.10400
H70         H  0.06090812  0.49024126  0.84217044     0.09300
H71         H  0.15534619  0.51609425  0.93851535     0.06800
H72         H  0.19335119  0.49777747  0.80885449     0.06700
C73         C  0.86379325  0.45728041  0.82499361     0.03700
C74         C  0.82078354  0.46074209  0.83563574    -0.12500
C75         C  0.80816315  0.47133933  0.87702218     0.01200
C76         C  0.83903073  0.47783020  0.90839900    -0.11000
C77         C  0.88254048  0.47179880  0.89929946     0.03700
C78         C  0.89449777  0.46108866  0.85700350    -0.10400
H79         H  0.79729624  0.45901014  0.81079413     0.09300
H80         H  0.82894300  0.48864754  0.93968555     0.06800
H81         H  0.92772370  0.45792443  0.84828800     0.06700
N82         N  0.99206248  0.48853111  0.94312435    -0.36000
N83         N  0.05727844  0.50518792  0.00705507    -0.56600
N84         N  0.99098745  0.49228790  0.07419597    -0.36000
N85         N  0.92563858  0.48534586  0.00992518    -0.56600
C86         C  0.02498453  0.50792155  0.92176555     0.27500
C87         C  0.95577292  0.49773351  0.92329242     0.27500
C88         C  0.02423326  0.51261140  0.09359554     0.27500
C89         C  0.95501187  0.50348220  0.09523374     0.27500
C90         C  0.07833487  0.48991450  0.97246436     0.36200
C91         C  0.07788903  0.49176224  0.04140761     0.36200
C92         C  0.90578494  0.46730689  0.97596923     0.36200
C93         C  0.90511514  0.47029076  0.04497515     0.36200
C94         C  0.00915220  0.53144899  0.88916538    -0.21300
C95         C  0.96544301  0.52462466  0.88989143    -0.21300
C96         C  0.00908156  0.53828068  0.12639512    -0.21300
C97         C  0.96535117  0.53236286  0.12753277    -0.21300
C98         C  0.11135943  0.46514946  0.98498543    -0.22400
C99         C  0.11126488  0.46662040  0.02869850    -0.22400
C100        C  0.87306290  0.43980508  0.98954689    -0.22400
C101        C  0.87260895  0.44174080  0.03326545    -0.22400
C102        C  0.06837542  0.50077778  0.93033052    -0.17700
C103        C  0.91531067  0.47886484  0.93342329    -0.17700
C104        C  0.91401665  0.48544960  0.08671970    -0.17700
C105        C  0.06745541  0.50478835  0.08349013    -0.17700
H106        H  0.02706095  0.55122576  0.86697680     0.15200
H107        H  0.94339550  0.53780331  0.86824143     0.15200
H108        H  0.02750517  0.55899642  0.14745928     0.15200
H109        H  0.94374772  0.54770343  0.14955290     0.15200
H110        H  0.13301606  0.44752909  0.96484227     0.13500
H111        H  0.13287413  0.45057277  0.04876789     0.13500
H112        H  0.85166601  0.42040960  0.97010517     0.13500
H113        H  0.85082704  0.42417606  0.05397182     0.13500
H114        H  0.99444594  0.46745271  0.96740081     0.26700
H115        H  0.99306758  0.46968558  0.05013337     0.26700
N116        N  0.91014779  0.48048228  0.43933264    -0.05600
N117        N  0.88332970  0.49392503  0.41082208    -0.57700
N118        N  0.94228001  0.39490049  0.49003462    -0.05200
N119        N  0.94008098  0.35351499  0.49433771    -0.59800
N120        N  0.91119351  0.41341704  0.51088378    -0.04800
N121        N  0.88665225  0.38416219  0.53006645    -0.57700
N122        N  0.94074237  0.45955098  0.42013652    -0.04500
N123        N  0.93561085  0.45799746  0.37887805    -0.60200
C124        C  0.90011455  0.47962495  0.37333993     0.96600
C125        C  0.90573970  0.34717616  0.51941734     0.96400
N126        N  0.07110499  0.41717987  0.50650924    -0.05700
N127        N  0.09720681  0.38907974  0.52191432    -0.58300
N128        N  0.03886118  0.46260394  0.41736688    -0.03900
N129        N  0.04139229  0.46375888  0.37576437    -0.59500
N130        N  0.07026655  0.48495979  0.43494429    -0.05800
N131        N  0.09508076  0.50218701  0.40496165    -0.58500
N132        N  0.03929151  0.39697772  0.48736909    -0.03500
N133        N  0.04259631  0.35555975  0.48936893    -0.59600
Mn134      Mn  0.99031297  0.42818216  0.45328442     1.18400
C135        C  0.07846647  0.35072765  0.51103127     0.98700
C136        C  0.07626653  0.48854970  0.36839498     0.99400
N137        N  0.91161034  0.48709676  0.58085548    -0.05800
N138        N  0.88694874  0.46909755  0.61064059    -0.62100
N139        N  0.94270863  0.57618605  0.52888414    -0.04600
N140        N  0.93878372  0.61763220  0.52803219    -0.62800
N141        N  0.91065082  0.55609563  0.51002627    -0.05300
N142        N  0.88375303  0.58433938  0.49611507    -0.62400
N143        N  0.94305206  0.50922312  0.59853735    -0.04200
N144        N  0.94068710  0.50702330  0.64006053    -0.63100
Mn145      Mn  0.90853043  0.48434240  0.51019915     1.10700
C146        C  0.90575657  0.48208758  0.64747400     0.99900
C147        C  0.90208686  0.62276342  0.50771386     1.00000
N148        N  0.07207970  0.55984077  0.50515453    -0.05300
N149        N  0.09745558  0.58957627  0.48746021    -0.60700
N150        N  0.04110946  0.51215366  0.59586538    -0.04600
N151        N  0.04492518  0.51172078  0.63729606    -0.57400
N152        N  0.07241426  0.49230948  0.57667239    -0.05900
N153        N  0.09866524  0.47806403  0.60532895    -0.60200
N154        N  0.04053367  0.57799085  0.52561128    -0.04900
N155        N  0.04318096  0.61943379  0.52201349    -0.57400
Mn156      Mn  0.07395433  0.48863167  0.50573803     1.20200
Mn157      Mn  0.99190568  0.54429685  0.56260143     1.10100
Cl158      Cl  0.99118894  0.48647765  0.50788119    -0.85400
C159        C  0.07874752  0.62679634  0.49868830     0.96900
C160        C  0.08046726  0.49018563  0.64295732     0.96700
C161        C  0.46201138  0.87361860  0.19512384     0.03700
C162        C  0.46261613  0.83081715  0.18277408    -0.12500
C163        C  0.47048956  0.81903507  0.14056103     0.01200
C164        C  0.47725120  0.85081932  0.11003916    -0.11000
C165        C  0.47428031  0.89455353  0.12120097     0.03700
C166        C  0.46632725  0.90538078  0.16433768    -0.10400
H167        H  0.45980242  0.80648082  0.20670995     0.09300
H168        H  0.48526241  0.84133444  0.07774990     0.06800
H169        H  0.46513190  0.93843497  0.17446782     0.06700
C170        C  0.52013680  0.19083577  0.14413865     0.03700
C171        C  0.52287033  0.15817262  0.11302995    -0.12500
C172        C  0.52367582  0.11442789  0.12390413     0.01200
C173        C  0.51769830  0.10520349  0.16773155    -0.11000
C174        C  0.51562192  0.13774757  0.19905435     0.03700
C175        C  0.51752159  0.18029087  0.18697547    -0.10400
H176        H  0.52216653  0.16763581  0.08034273     0.09300
H177        H  0.51327073  0.07302387  0.17847130     0.06800
H178        H  0.51553108  0.20533107  0.21100572     0.06700
C179        C  0.52320879  0.18822338  0.87899892     0.03700
C180        C  0.51804762  0.15781565  0.91119960    -0.12500
C181        C  0.51925174  0.11359512  0.90156008     0.01200
C182        C  0.52437201  0.10106360  0.85840808    -0.11000
C183        C  0.52565262  0.13127621  0.82612605     0.03700
C184        C  0.52724666  0.17447265  0.83675553    -0.10400
H185        H  0.51199121  0.16880568  0.94342581     0.09900
H186        H  0.52535674  0.06769944  0.84941049     0.06800
H187        H  0.52909738  0.19764012  0.81166547     0.06700
C188        C  0.46985524  0.87011958  0.82573014     0.03700
C189        C  0.46654524  0.82801507  0.83891749    -0.12500
C190        C  0.46478323  0.81856127  0.88187494     0.01200
C191        C  0.46464504  0.85175641  0.91234264    -0.11000
C192        C  0.46420410  0.89525716  0.90068355     0.03700
C193        C  0.46929498  0.90351453  0.85642603    -0.10400
H194        H  0.46777075  0.80227506  0.81554923     0.09300
H195        H  0.46724782  0.84278240  0.94502019     0.06800
H196        H  0.47445656  0.93534020  0.84494520     0.06700
N197        N  0.49340575  0.00437731  0.94583430    -0.36000
N198        N  0.51196892  0.06982811  0.01274284    -0.56600
N199        N  0.49798797  0.00498725  0.07835221    -0.36000
N200        N  0.47844013  0.94038912  0.01134048    -0.56600
C201        C  0.48904774  0.04193358  0.92615101     0.27500
C202        C  0.46942441  0.97445677  0.92456847     0.27500
C203        C  0.52145043  0.03529853  0.09952992     0.27500
C204        C  0.50303797  0.96745088  0.09794056     0.27500
C205        C  0.52837412  0.08823028  0.97717022     0.36200
C206        C  0.53189390  0.08928754  0.04604529     0.36200
C207        C  0.45773300  0.92112397  0.97843611     0.36200
C208        C  0.46315948  0.92148737  0.04706412     0.36200
C209        C  0.46047555  0.03600105  0.89340017    -0.21300
C210        C  0.44801561  0.99362739  0.89245522    -0.21300
C211        C  0.54335208  0.01639999  0.13156672    -0.21300
C212        C  0.53148335  0.97373373  0.13081142    -0.21300
C213        C  0.56023426  0.11785974  0.98790020    -0.22400
C214        C  0.56252974  0.11846655  0.03144428    -0.22400
C215        C  0.42762743  0.89165506  0.99356843    -0.22400
C216        C  0.43131016  0.89164160  0.03692455    -0.22400
C217        C  0.51237646  0.08047920  0.93573159    -0.17700
C218        C  0.46503229  0.93076934  0.93499075    -0.17700
C219        C  0.48032198  0.92864880  0.08804310    -0.17700
C220        C  0.52441430  0.07919688  0.08934529    -0.17700
H221        H  0.44905058  0.05989107  0.87283669     0.15200
H222        H  0.42440550  0.97908073  0.87164856     0.15200
H223        H  0.56650606  0.03149816  0.15252910     0.15200
H224        H  0.54299388  0.94999356  0.15172915     0.15200
H225        H  0.58022604  0.13656705  0.96654517     0.13500
H226        H  0.58510172  0.13722467  0.05019504     0.13500
H227        H  0.40481007  0.87271359  0.97529020     0.13500
H228        H  0.41234940  0.87224597  0.05856714     0.13500
H229        H  0.51374054  0.99900659  0.97082289     0.26700
H230        H  0.47744589  0.01017050  0.05347100     0.26700
C231        C  0.12233304  0.80468466  0.46431059     0.03700
C232        C  0.09086461  0.83558298  0.46484984    -0.12500
C233        C  0.10131548  0.87982626  0.46080794     0.01200
C234        C  0.14536954  0.89154961  0.46340635    -0.11000
C235        C  0.17690090  0.86078609  0.46434372     0.03700
C236        C  0.16502117  0.81766812  0.46216931    -0.10400
H237        H  0.05861358  0.82435323  0.47105216     0.09300
H238        H  0.15602762  0.92425396  0.46758838     0.06800
H239        H  0.18927742  0.79400127  0.46311293     0.06700
C240        C  0.81412377  0.11246631  0.54331474     0.03700
C241        C  0.82675695  0.15527913  0.54289125    -0.12500
C242        C  0.86913981  0.16766655  0.53510688     0.01200
C243        C  0.89963338  0.13633431  0.52818241    -0.11000
C244        C  0.88804419  0.09241591  0.53096106     0.03700
C245        C  0.84475816  0.08112264  0.53949113    -0.10400
H246        H  0.80284968  0.17927329  0.54606505     0.09300
H247        H  0.93188873  0.14632382  0.51953513     0.06800
H248        H  0.83431366  0.04799536  0.54115462     0.06700
C249        C  0.12560045  0.17475757  0.51718450     0.03700
C250        C  0.09491266  0.14119570  0.51376063    -0.12500
C251        C  0.10682507  0.09804599  0.51328423     0.01200
C252        C  0.15106661  0.09011204  0.51419733    -0.11000
C253        C  0.18190505  0.12403247  0.51503278     0.03700
C254        C  0.16866799  0.16589515  0.51738135    -0.10400
H255        H  0.06186904  0.14906395  0.51074585     0.09300
H256        H  0.16175391  0.05773815  0.51383913     0.06800
H257        H  0.19220472  0.19198279  0.51792908     0.06700
C258        C  0.80091823  0.85304860  0.49810628     0.03700
C259        C  0.83270826  0.88489127  0.49035758    -0.12500
C260        C  0.87620991  0.87486324  0.48347130     0.01200
C261        C  0.88625062  0.83138948  0.48863764    -0.11000
C262        C  0.85440315  0.79945961  0.49571725     0.03700
C263        C  0.81205118  0.81060091  0.50022050    -0.10400
H264        H  0.82250399  0.91718520  0.49089021     0.09300
H265        H  0.91883493  0.82169039  0.48864603     0.06800
H266        H  0.78759857  0.78608554  0.50598929     0.06700
N267        N  0.92629364  0.98245310  0.50317578    -0.36000
N268        N  0.99632867  0.04791176  0.51323828    -0.56600
N269        N  0.06011277  0.98587451  0.49167303    -0.36000
N270        N  0.98952443  0.92218831  0.47358323    -0.56600
C271        C  0.90769291  0.02048671  0.49964496     0.27500
C272        C  0.90291625  0.95335168  0.48042834     0.27500
C273        C  0.08084624  0.02419064  0.48611587     0.27500
C274        C  0.07792163  0.95750976  0.46438863     0.27500
C275        C  0.96308107  0.06495687  0.53454112     0.36200
C276        C  0.03220369  0.06666614  0.52928907     0.36200
C277        C  0.95362040  0.89886402  0.46377704     0.36200
C278        C  0.02278976  0.90104580  0.45636639     0.36200
C279        C  0.87324958  0.01576077  0.47279860    -0.21300
C280        C  0.87050093  0.97348958  0.46038924    -0.21300
C281        C  0.11104470  0.02030097  0.45386970    -0.21300
C282        C  0.10889161  0.97842350  0.43989149    -0.21300
C283        C  0.97787927  0.09365302  0.56526514    -0.22400
C284        C  0.02169880  0.09471836  0.56199110    -0.22400
C285        C  0.96393589  0.86498929  0.43730510    -0.22400
C286        C  0.00744239  0.86657492  0.43234247    -0.22400
C287        C  0.92015520  0.05838887  0.52218437    -0.17700
C288        C  0.91150096  0.90944224  0.47643879    -0.17700
C289        C  0.06666108  0.91328891  0.46119583    -0.17700
C290        C  0.07320431  0.06187573  0.51050029    -0.17700
H291        H  0.85269150  0.04032261  0.46253261     0.15200
H292        H  0.84802274  0.95948964  0.43805642     0.15200
H293        H  0.13166276  0.04520804  0.44090152     0.15200
H294        H  0.12753617  0.96498375  0.41406562     0.15200
H295        H  0.95905408  0.11242819  0.58716769     0.13500
H296        H  0.04324357  0.11453506  0.58088316     0.13500
H297        H  0.94226736  0.84272127  0.42134605     0.13500
H298        H  0.02549270  0.84568378  0.41174939     0.13500
H299        H  0.95215731  0.97612589  0.52218204     0.26700
H300        H  0.03660006  0.97874879  0.51450938     0.26700
N301        N  0.49256177  0.91562790  0.43928107    -0.05600
N302        N  0.47507265  0.89059533  0.40950345    -0.57700
N303        N  0.58124123  0.94474749  0.49095342    -0.05200
N304        N  0.62245573  0.93918596  0.49128001    -0.59800
N305        N  0.56016833  0.91349238  0.51005231    -0.04800
N306        N  0.58731817  0.88539888  0.52349290    -0.57700
N307        N  0.51539796  0.94654061  0.42153206    -0.04500
N308        N  0.51435059  0.94339955  0.38004076    -0.60200
C309        C  0.48933244  0.90858235  0.37276795     0.96600
C310        C  0.62609652  0.90261330  0.51198205     0.96400
N311        N  0.56798845  0.07373006  0.51497084    -0.05700
N312        N  0.59784460  0.09727809  0.53468164    -0.58300
N313        N  0.52165974  0.04524328  0.42254961    -0.03900
N314        N  0.52444275  0.05076545  0.38126999    -0.59500
N315        N  0.50194146  0.07677875  0.44151869    -0.05800
N316        N  0.49073867  0.10461672  0.41284364    -0.58500
N317        N  0.58567525  0.04199213  0.49433098    -0.03500
N318        N  0.62696870  0.04275140  0.49944743    -0.59600
Mn319      Mn  0.55123002  0.99469888  0.45692512     1.18400
C320        C  0.63438132  0.07694502  0.52467267     0.98700
C321        C  0.50479954  0.08750114  0.37532942     0.99400
N322        N  0.48482293  0.91536698  0.58092534    -0.05800
N323        N  0.49738887  0.88872416  0.61006682    -0.62100
N324        N  0.39948644  0.94739671  0.52902641    -0.04600
N325        N  0.35794832  0.94421236  0.52463007    -0.62800
N326        N  0.41837324  0.91609107  0.50882539    -0.05300
N327        N  0.38960924  0.89069852  0.48998558    -0.62400
N328        N  0.46484012  0.94698316  0.59947682    -0.04200
N329        N  0.46349888  0.94298192  0.64086244    -0.63100
Mn330      Mn  0.48896236  0.91291182  0.50989694     1.10700
C331        C  0.48407470  0.90701474  0.64727355     0.99900
C332        C  0.35220624  0.90896229  0.50026138     1.00000
N333        N  0.42558139  0.07702042  0.51121207    -0.05300
N334        N  0.39839815  0.10387893  0.49553046    -0.60700
N335        N  0.46962743  0.04507432  0.60107952    -0.04600
N336        N  0.47054838  0.04849539  0.64264157    -0.57400
N337        N  0.49248023  0.07594665  0.58336400    -0.05900
N338        N  0.50945654  0.10134404  0.61317381    -0.60200
N339        N  0.40433983  0.04570015  0.53013173    -0.04900
N340        N  0.36308143  0.05005942  0.52751144    -0.57400
Mn341      Mn  0.49703599  0.07823916  0.51272924     1.20200
Mn342      Mn  0.43408237  0.99635204  0.56533791     1.10100
Cl343      Cl  0.49275853  0.99554724  0.51118763    -0.85400
C344        C  0.35951544  0.08588197  0.50550763     0.96900
C345        C  0.49516554  0.08367768  0.65009085     0.96700
C346        C  0.75509706  0.86346660  0.50341327    -0.04800
C347        C  0.72581475  0.85098211  0.47160802    -0.01900
C348        C  0.68235275  0.86019275  0.47651065     0.03100
C349        C  0.66767171  0.88190291  0.51326042    -0.04800
C350        C  0.69658406  0.89314616  0.54571319    -0.01900
C351        C  0.74012523  0.88365320  0.54097151     0.03100
C352        C  0.74071282  0.82969646  0.43318203     0.37700
C353        C  0.68158693  0.91567153  0.58335812     0.37700
C354        C  0.76956098  0.89421985  0.57478753     0.36200
C355        C  0.65288870  0.84909313  0.44278068     0.36200
N356        N  0.79332975  0.90225165  0.60165109    -0.38700
N357        N  0.62925642  0.84040285  0.41596554    -0.38700
N358        N  0.66934008  0.93362015  0.61330579    -0.38100
N359        N  0.75275927  0.81261658  0.40265245    -0.38100
C360        C  0.22861705  0.11702995  0.51115141    -0.04800
C361        C  0.24662133  0.10302900  0.47209162    -0.01900
C362        C  0.29088715  0.09667844  0.46833909     0.03100
C363        C  0.31767458  0.10590065  0.50298653    -0.04800
C364        C  0.30033013  0.12395540  0.54046370    -0.01900
C365        C  0.25601767  0.12900502  0.54483353     0.03100
C366        C  0.21985269  0.09654904  0.43534447     0.37700
C367        C  0.32831854  0.13614826  0.57512696     0.37700
C368        C  0.23874770  0.14562138  0.58451842     0.36200
C369        C  0.30874378  0.08013817  0.42899580     0.36200
N370        N  0.22556321  0.15900390  0.61638977    -0.38700
N371        N  0.32255853  0.06718085  0.39724988    -0.38700
N372        N  0.35092831  0.14598721  0.60247655    -0.38100
N373        N  0.19871105  0.09200737  0.40579248    -0.38100
C374        C  0.67861954  0.09249790  0.53210362    -0.04800
C375        C  0.70480182  0.10052889  0.49607095    -0.01900
C376        C  0.74929914  0.10278994  0.49957181     0.03100
C377        C  0.76799854  0.10191743  0.53986578    -0.04800
C378        C  0.74191331  0.09628331  0.57632442    -0.01900
C379        C  0.69750228  0.08902785  0.57214787     0.03100
C380        C  0.68586843  0.10493638  0.45482574     0.37700
C381        C  0.76089349  0.09765434  0.61789328     0.37700
C382        C  0.67225645  0.07389236  0.60797911     0.36200
C383        C  0.77579976  0.10435789  0.46139430     0.36200
N384        N  0.65265785  0.06045860  0.63642603    -0.38700
N385        N  0.79638633  0.10459025  0.43058770    -0.38700
N386        N  0.77619675  0.09932142  0.65103412    -0.38100
N387        N  0.67067480  0.10833875  0.42198764    -0.38100
C388        C  0.22241099  0.87285676  0.47257917    -0.04800
C389        C  0.24246132  0.85680043  0.50858958    -0.01900
C390        C  0.28619466  0.86519786  0.51505300     0.03100
C391        C  0.30939862  0.89289759  0.48792278    -0.04800
C392        C  0.28892374  0.91110841  0.45350328    -0.01900
C393        C  0.24614956  0.89946340  0.44460020     0.03100
C394        C  0.21760320  0.83382797  0.54058648     0.37700
C395        C  0.31128820  0.94353028  0.42876021     0.37700
C396        C  0.22666624  0.91449348  0.40659053     0.36200
C397        C  0.30680928  0.84651693  0.55072149     0.36200
N398        N  0.21081884  0.92602985  0.37620890    -0.38700
N399        N  0.32270752  0.83106240  0.57916739    -0.38700
N400        N  0.32930710  0.96989618  0.40980408    -0.38100
N401        N  0.19781074  0.81597438  0.56640733    -0.38100
C402        C  0.47488144  0.87801118  0.77913702    -0.04800
C403        C  0.44147934  0.86580261  0.75142008    -0.01900
C404        C  0.44663482  0.87073927  0.70719734     0.03100
C405        C  0.48484611  0.88858800  0.69013234    -0.04800
C406        C  0.51881410  0.89936989  0.71735195    -0.01900
C407        C  0.51396581  0.89402404  0.76172898     0.03100
C408        C  0.40094642  0.84999852  0.76859564     0.37700
C409        C  0.55821001  0.91716294  0.69944585     0.37700
C410        C  0.54905989  0.90528205  0.78943707     0.36200
C411        C  0.41199264  0.85883459  0.67902445     0.36200
N412        N  0.57704732  0.91441153  0.81157955    -0.38700
N413        N  0.38463848  0.84937818  0.65623613    -0.38700
N414        N  0.58938381  0.93119205  0.68444273    -0.38100
N415        N  0.36856530  0.83761311  0.78237859    -0.38100
C416        C  0.51862989  0.11864329  0.78101136    -0.04800
C417        C  0.47708503  0.10698139  0.76772916    -0.01900
C418        C  0.46936212  0.09710823  0.72472159     0.03100
C419        C  0.50279659  0.10034543  0.69405707    -0.04800
C420        C  0.54334465  0.11610159  0.70684465    -0.01900
C421        C  0.55155846  0.12390757  0.75034605     0.03100
C422        C  0.44151804  0.10757295  0.79773919     0.37700
C423        C  0.57619866  0.12578068  0.67544653     0.37700
C424        C  0.59392564  0.13731962  0.76373986     0.36200
C425        C  0.42618094  0.08584580  0.71178177     0.36200
N426        N  0.62770423  0.14783896  0.77468497    -0.38700
N427        N  0.39185886  0.07691638  0.70125864    -0.38700
N428        N  0.60213685  0.13507902  0.65050598    -0.38100
N429        N  0.41251322  0.10859816  0.82082730    -0.38100
C430        C  0.51151723  0.12764918  0.24518595    -0.04800
C431        C  0.54679975  0.13428634  0.27187831    -0.01900
C432        C  0.54342969  0.12432090  0.31535965     0.03100
C433        C  0.50472879  0.10772850  0.33286587    -0.04800
C434        C  0.46885478  0.10304519  0.30658568    -0.01900
C435        C  0.47226811  0.11280107  0.26289643     0.03100
C436        C  0.58711524  0.15010901  0.25416658     0.37700
C437        C  0.42871761  0.08699916  0.32413727     0.37700
C438        C  0.43558662  0.10704879  0.23587764     0.36200
C439        C  0.58016784  0.13102029  0.34202742     0.36200
N440        N  0.40653870  0.10241045  0.21399794    -0.38700
N441        N  0.60978841  0.13704880  0.36280948    -0.38700
N442        N  0.39645006  0.07429595  0.33782864    -0.38100
N443        N  0.61918771  0.16269094  0.23983977    -0.38100
C444        C  0.46747794  0.88381079  0.24085734    -0.04800
C445        C  0.50927181  0.88761827  0.25636175    -0.01900
C446        C  0.51615982  0.89147700  0.30014689     0.03100
C447        C  0.48126325  0.89299250  0.32899229    -0.04800
C448        C  0.43941094  0.88746737  0.31381712    -0.01900
C449        C  0.43250773  0.88320851  0.26966812     0.03100
C450        C  0.54552834  0.88730452  0.22714483     0.37700
C451        C  0.40355715  0.88686392  0.34340172     0.37700
C452        C  0.38950604  0.87964749  0.25385479     0.36200
C453        C  0.55955670  0.89268314  0.31543545     0.36200
N454        N  0.35500299  0.87731269  0.24157244    -0.38700
N455        N  0.59435928  0.89322733  0.32690359    -0.38700
N456        N  0.37490754  0.88583849  0.36697341    -0.38100
N457        N  0.57459730  0.88722257  0.20410442    -0.38100
C458        C  0.87949816  0.21401110  0.53116911    -0.04800
C459        C  0.90525601  0.23591447  0.56137720    -0.01900
C460        C  0.91118288  0.28057737  0.55964487     0.03100
C461        C  0.89029389  0.30366427  0.52875532    -0.04800
C462        C  0.86483506  0.28193394  0.49849604    -0.01900
C463        C  0.85992518  0.23727972  0.49925061     0.03100
C464        C  0.92606706  0.21274951  0.59398959     0.37700
C465        C  0.84638932  0.30549814  0.46457492     0.37700
C466        C  0.83681063  0.21525067  0.46548166     0.36200
C467        C  0.94068184  0.30279527  0.58804688     0.36200
N468        N  0.81870590  0.19842527  0.43789435    -0.38700
N469        N  0.96445371  0.32091885  0.61011716    -0.38700
N470        N  0.83223485  0.32466233  0.43753782    -0.38100
N471        N  0.94307088  0.19484763  0.62019912    -0.38100
C472        C  0.88337779  0.66585223  0.50499808    -0.04800
C473        C  0.87079304  0.68240321  0.46591826    -0.01900
C474        C  0.86169772  0.72615789  0.46289598     0.03100
C475        C  0.86483395  0.75360910  0.49883372    -0.04800
C476        C  0.87568575  0.73684247  0.53815627    -0.01900
C477        C  0.88466367  0.69331268  0.54132850     0.03100
C478        C  0.86951043  0.65522091  0.42833697     0.37700
C479        C  0.87899480  0.76479563  0.57521250     0.37700
C480        C  0.89602537  0.67695336  0.58224446     0.36200
C481        C  0.85096667  0.74377761  0.42242391     0.36200
N482        N  0.90556108  0.66377662  0.61464045    -0.38700
N483        N  0.84277661  0.75873776  0.39044173    -0.38700
N484        N  0.88206193  0.78709521  0.60472905    -0.38100
N485        N  0.86840444  0.63372440  0.39813947    -0.38100
C486        C  0.09710745  0.30811061  0.51388495    -0.04800
C487        C  0.10278955  0.28404845  0.47587936    -0.01900
C488        C  0.11050485  0.24024646  0.47719451     0.03100
C489        C  0.11384621  0.22013632  0.51646867    -0.04800
C490        C  0.11062366  0.24446794  0.55452854    -0.01900
C491        C  0.10161927  0.28826799  0.55329852     0.03100
C492        C  0.10061698  0.30440741  0.43504620     0.37700
C493        C  0.11637687  0.22429754  0.59492285     0.37700
C494        C  0.09552275  0.31225143  0.59253680     0.36200
C495        C  0.11495572  0.21572237  0.43796462     0.36200
N496        N  0.09077269  0.33087369  0.62420274    -0.38700
N497        N  0.11834321  0.19617211  0.40667296    -0.38700
N498        N  0.12117191  0.20827662  0.62716574    -0.38100
N499        N  0.09892727  0.32049234  0.40243171    -0.38100
C500        C  0.09468290  0.67133137  0.49027982    -0.04800
C501        C  0.11267860  0.68321064  0.45064004    -0.01900
C502        C  0.12148847  0.72677406  0.44192945     0.03100
C503        C  0.11166046  0.75882844  0.47242598    -0.04800
C504        C  0.09537672  0.74681753  0.51256218    -0.01900
C505        C  0.08720986  0.70356742  0.52154949     0.03100
C506        C  0.12047707  0.65105835  0.41811184     0.37700
C507        C  0.08806063  0.77888181  0.54545697     0.37700
C508        C  0.07123543  0.69253857  0.56364104     0.36200
C509        C  0.14027014  0.73871338  0.40132221     0.36200
N510        N  0.05802240  0.68357261  0.59691954    -0.38700
N511        N  0.15554732  0.74828022  0.36906013    -0.38700
N512        N  0.08206335  0.80397587  0.57204766    -0.38100
N513        N  0.12673802  0.62555732  0.39197654    -0.38100
C514        C  0.87596087  0.46167688  0.77950946    -0.04800
C515        C  0.87261307  0.42686259  0.75054472    -0.01900
C516        C  0.88002267  0.43318372  0.70655371     0.03100
C517        C  0.88970458  0.47456345  0.69148266    -0.04800
C518        C  0.88985328  0.50954545  0.72039702    -0.01900
C519        C  0.88416060  0.50305043  0.76411306     0.03100
C520        C  0.86157099  0.38472588  0.76611317     0.37700
C521        C  0.89428531  0.55276969  0.70496692     0.37700
C522        C  0.88535321  0.53946170  0.79323559     0.36200
C523        C  0.87843184  0.39715828  0.67716808     0.36200
N524        N  0.88622047  0.56863650  0.81620730    -0.38700
N525        N  0.87693266  0.36827053  0.65384056    -0.38700
N526        N  0.89752303  0.58716455  0.69254624    -0.38100
N527        N  0.85260485  0.35114579  0.77861583    -0.38100
C528        C  0.09870281  0.48680302  0.68570382    -0.04800
C529        C  0.08215998  0.45561552  0.71371201    -0.01900
C530        C  0.09153692  0.45826232  0.75742987     0.03100
C531        C  0.11606660  0.49322924  0.77391703    -0.04800
C532        C  0.13262333  0.52448307  0.74552671    -0.01900
C533        C  0.12437432  0.52091146  0.70167902     0.03100
C534        C  0.05396985  0.42167516  0.69774012     0.37700
C535        C  0.15627515  0.56177231  0.76146586     0.37700
C536        C  0.14003835  0.55395068  0.67319709     0.36200
C537        C  0.07618070  0.42472408  0.78531832     0.36200
N538        N  0.15225599  0.58034381  0.65046357    -0.38700
N539        N  0.06400493  0.39808790  0.80777875    -0.38700
N540        N  0.17514039  0.59165306  0.77380903    -0.38100
N541        N  0.03123914  0.39476702  0.68507558    -0.38100
C542        C  0.86806811  0.48075786  0.24218334    -0.04800
C543        C  0.85789568  0.44470165  0.26684120    -0.01900
C544        C  0.86338670  0.44648716  0.31114656     0.03100
C545        C  0.88183036  0.48327126  0.33075018    -0.04800
C546        C  0.89214876  0.51931510  0.30616555    -0.01900
C547        C  0.88388646  0.51855969  0.26223854     0.03100
C548        C  0.84338280  0.40519692  0.24642346     0.37700
C549        C  0.91360484  0.55613813  0.32560862     0.37700
C550        C  0.89161425  0.55661037  0.23757602     0.36200
C551        C  0.85029849  0.41024811  0.33665658     0.36200
N552        N  0.89737331  0.58692071  0.21771024    -0.38700
N553        N  0.83919412  0.38148519  0.35690687    -0.38700
N554        N  0.93134829  0.58515597  0.34113655    -0.38100
N555        N  0.83237438  0.37339639  0.23029739    -0.38100
C556        C  0.11092924  0.50534473  0.23745476    -0.04800
C557        C  0.12357604  0.46898078  0.25893456    -0.01900
C558        C  0.11349963  0.46428988  0.30235254     0.03100
C559        C  0.09209746  0.49660191  0.32488281    -0.04800
C560        C  0.07988724  0.53318474  0.30362199    -0.01900
C561        C  0.08943556  0.53765588  0.26000061     0.03100
C562        C  0.14716629  0.43649634  0.23631657     0.37700
C563        C  0.05653993  0.56573545  0.32636748     0.37700
C564        C  0.07813733  0.57605693  0.23869925     0.36200
C565        C  0.12440978  0.42576697  0.32372095     0.36200
N566        N  0.06924443  0.60703772  0.22222947    -0.38700
N567        N  0.13298033  0.39497909  0.34071479    -0.38700
N568        N  0.03791474  0.59183113  0.34430997    -0.38100
N569        N  0.16643922  0.41099186  0.21821148    -0.38100
C570        C  0.51138171  0.32323769  0.10934577    -0.04800
C571        C  0.47601561  0.30095871  0.12757572    -0.01900
C572        C  0.47890013  0.25788018  0.13878610     0.03100
C573        C  0.51733345  0.23646909  0.13200424    -0.04800
C574        C  0.55300489  0.25892589  0.11445601    -0.01900
C575        C  0.54987442  0.30195962  0.10258489     0.03100
C576        C  0.43619351  0.32245517  0.13396621     0.37700
C577        C  0.59308197  0.23779173  0.10905669     0.37700
C578        C  0.58583137  0.32357485  0.08199355     0.36200
C579        C  0.44187290  0.23525437  0.15644225     0.36200
N580        N  0.61496159  0.34008341  0.06547800    -0.38700
N581        N  0.41240549  0.21716950  0.17063571    -0.38700
N582        N  0.62506312  0.22088331  0.10499015    -0.38100
N583        N  0.40474998  0.34016801  0.13876106    -0.38100
C584        C  0.47815225  0.68401246  0.11401585    -0.04800
C585        C  0.44547737  0.70726565  0.09623315    -0.01900
C586        C  0.44265664  0.75130984  0.10505880     0.03100
C587        C  0.47402817  0.77292031  0.12971521    -0.04800
C588        C  0.50737838  0.74969456  0.14663138    -0.01900
C589        C  0.50876906  0.70528647  0.13967774     0.03100
C590        C  0.41580764  0.68612797  0.06729902     0.37700
C591        C  0.54158081  0.77164292  0.16948219     0.37700
C592        C  0.54264473  0.68165244  0.15786673     0.36200
C593        C  0.40732000  0.77414302  0.08878527     0.36200
N594        N  0.56960163  0.66303435  0.17275213    -0.38700
N595        N  0.37874458  0.79172320  0.07568173    -0.38700
N596        N  0.56942273  0.78856595  0.18735662    -0.38100
N597        N  0.39245346  0.66932536  0.04387662    -0.38100
C598        C  0.48015850  0.68529786  0.90737170    -0.04800
C599        C  0.51556994  0.71452781  0.90698776    -0.01900
C600        C  0.50995656  0.75829095  0.90122516     0.03100
C601        C  0.46909109  0.77340581  0.89411437    -0.04800
C602        C  0.43371525  0.74438662  0.89319692    -0.01900
C603        C  0.43927909  0.70031211  0.89920869     0.03100
C604        C  0.55838989  0.69920000  0.91054776     0.37700
C605        C  0.39152436  0.76028577  0.88717676     0.37700
C606        C  0.40311424  0.67063922  0.89643771     0.36200
C607        C  0.54644739  0.78791576  0.90244197     0.36200
N608        N  0.37411078  0.64715729  0.89324367    -0.38700
N609        N  0.57548413  0.81156990  0.90366185    -0.38700
N610        N  0.35794306  0.77336388  0.88279566    -0.38100
N611        N  0.59241797  0.68662945  0.91296992    -0.38100
C612        C  0.76273323  0.48039558  0.88590939    -0.04800
C613        C  0.73080947  0.44786582  0.88145585    -0.01900
C614        C  0.68763038  0.45666496  0.88967149     0.03100
C615        C  0.67603656  0.49821641  0.90197496    -0.04800
C616        C  0.70793089  0.53123298  0.90394366    -0.01900
C617        C  0.75104744  0.52225756  0.89648504     0.03100
C618        C  0.74249530  0.40494003  0.86951534     0.37700
C619        C  0.69643174  0.57492881  0.91267994     0.37700
C620        C  0.78341097  0.55633916  0.89921669     0.36200
C621        C  0.65566937  0.42237783  0.88704435     0.36200
N622        N  0.80932998  0.58332751  0.90163296    -0.38700
N623        N  0.63063705  0.39458608  0.88463552    -0.38700
N624        N  0.68743498  0.60983606  0.91945287    -0.38100
N625        N  0.75164536  0.37071158  0.85980587    -0.38100
C626        C  0.51818179  0.32412122  0.90165683    -0.04800
C627        C  0.54969035  0.30072144  0.92117837    -0.01900
C628        C  0.55199016  0.25640758  0.91340453     0.03100
C629        C  0.52102428  0.23488657  0.88810937    -0.04800
C630        C  0.48959597  0.25868053  0.86849071    -0.01900
C631        C  0.48953090  0.30328345  0.87374195     0.03100
C632        C  0.57973587  0.32259708  0.94912277     0.37700
C633        C  0.45593567  0.23711750  0.84452469     0.37700
C634        C  0.45952535  0.32787326  0.85083937     0.36200
C635        C  0.58671438  0.23327932  0.93053232     0.36200
N636        N  0.43615641  0.34761885  0.83198614    -0.38700
N637        N  0.61474339  0.21497713  0.94379607    -0.38700
N638        N  0.42898754  0.21979910  0.82567645    -0.38100
N639        N  0.60368702  0.34065530  0.97102042    -0.38100
C640        C  0.31273352  0.50178927  0.90553481    -0.04800
C641        C  0.29254825  0.46756212  0.88338818    -0.01900
C642        C  0.24847923  0.46774696  0.87579948     0.03100
C643        C  0.22468894  0.50380056  0.88737759    -0.04800
C644        C  0.24523220  0.53850679  0.90886976    -0.01900
C645        C  0.28876603  0.53677536  0.91918152     0.03100
C646        C  0.31740214  0.43210084  0.86826689     0.37700
C647        C  0.22184045  0.57622274  0.91978254     0.37700
C648        C  0.30871689  0.57017482  0.94512831     0.36200
C649        C  0.22736349  0.42997439  0.85762315     0.36200
N650        N  0.32494603  0.59632713  0.96622657    -0.38700
N651        N  0.21050018  0.39976490  0.84339716    -0.38700
N652        N  0.20301586  0.60630513  0.92826135    -0.38100
N653        N  0.33755956  0.40426992  0.85572664    -0.38100
C654        C  0.30967991  0.50629386  0.10766355    -0.04800
C655        C  0.29505740  0.54678980  0.12011011    -0.01900
C656        C  0.25126969  0.55208767  0.12965651     0.03100
C657        C  0.22184378  0.51731525  0.12535690    -0.04800
C658        C  0.23650226  0.47689626  0.11327882    -0.01900
C659        C  0.28007856  0.47124822  0.10512072     0.03100
C660        C  0.32452381  0.58328183  0.12069428     0.37700
C661        C  0.20670340  0.44065460  0.10956690     0.37700
C662        C  0.29430710  0.42883454  0.09426977     0.36200
C663        C  0.23610080  0.59332447  0.14307427     0.36200
N664        N  0.30569329  0.39515680  0.08530156    -0.38700
N665        N  0.22347181  0.62601664  0.15387613    -0.38700
N666        N  0.18326894  0.41158295  0.10633816    -0.38100
N667        N  0.34828994  0.61225370  0.12071680    -0.38100
C668        C  0.67283100  0.50442291  0.11416020    -0.04800
C669        C  0.70214698  0.53970016  0.11387392    -0.01900
C670        C  0.74530634  0.53426607  0.12265707     0.03100
C671        C  0.75963779  0.49358472  0.13178444    -0.04800
C672        C  0.73033122  0.45851120  0.13362750    -0.01900
C673        C  0.68670953  0.46421614  0.12616414     0.03100
C674        C  0.68767794  0.58224610  0.10649125     0.37700
C675        C  0.74559999  0.41638403  0.14148134     0.37700
C676        C  0.65615793  0.42908335  0.13144040     0.36200
C677        C  0.77493777  0.57076094  0.12269923     0.36200
N678        N  0.63128649  0.40163104  0.13684504    -0.38700
N679        N  0.79833966  0.60002242  0.12270485    -0.38700
N680        N  0.75843917  0.38294123  0.14721379    -0.38100
N681        N  0.67643908  0.61635290  0.10102668    -0.38100
loop_ 
_geom_bond_atom_site_label_1 
_geom_bond_atom_site_label_2 
_geom_bond_distance 
_geom_bond_site_symmetry_2 
_ccdc_geom_bond_type 
N1            N2   1.327       .  A
N1            N7   1.316       .  A
N1          Mn30   2.228       .  S
N2            C9   1.360       .  A
N3            N5   1.316       .  A
N3            N4   1.313       .  A
N3          Mn19   2.157       .  S
N4           C10   1.341       .  A
N5            N6   1.328       .  A
N5          Mn30   2.244       .  S
N6           C10   1.362       .  A
N7            N8   1.313       .  A
N7          Mn19   2.174       .  S
N8            C9   1.346       .  A
C9          C668   1.486       .  S
C10         C584   1.477       .  S
N11          N17   1.315       .  A
N11          N12   1.332       .  A
N11         Mn41   2.253       .  S
N12          C20   1.365       .  A
N13          N14   1.314       .  A
N13          N15   1.315       .  A
N13         Mn19   2.169   1_556  S
N14          C21   1.346       .  A
N15          N16   1.328       .  A
N15         Mn41   2.238       .  S
N16          C21   1.362       .  A
N17          N18   1.312       .  A
N17         Mn19   2.170   1_556  S
N18          C20   1.344       .  A
Mn19        Cl43   2.499       .  S
C20         C598   1.494       .  S
C21         C615   1.490       .  S
N22          N23   1.330       .  A
N22          N28   1.314       .  A
N22         Mn30   2.242       .  S
N23          C31   1.364       .  A
N24          N26   1.315       .  A
N24          N25   1.316       .  A
N24         Mn42   2.170       .  S
N25          C32   1.345       .  A
N26          N27   1.329       .  A
N26         Mn30   2.250       .  S
N27          C32   1.363       .  A
N28          N29   1.311       .  A
N28         Mn42   2.165       .  S
N29          C31   1.344       .  A
Mn30        Cl43   2.587       .  S
C31         C654   1.492       .  S
C32         C570   1.488       .  S
N33          N34   1.328       .  A
N33          N39   1.315       .  A
N33         Mn41   2.241       .  S
N34          C44   1.360       .  A
N35          N36   1.314       .  A
N35          N37   1.315       .  A
N35         Mn42   2.163   1_556  S
N36          C45   1.342       .  A
N37          N38   1.328       .  A
N37         Mn41   2.243       .  S
N38          C45   1.361       .  A
N39          N40   1.313       .  A
N39         Mn42   2.161   1_556  S
N40          C44   1.342       .  A
Mn41        Cl43   2.585   1_556  S
Mn42        Cl43   2.502       .  S
C44         C626   1.476       .  S
C45         C640   1.481       .  S
C46         C657   1.487       .  S
C46          C47   1.407       .  A
C46          C51   1.394       .  A
C47          C48   1.417       .  A
C47          H52   1.081       .  S
C48         C105   1.517       .  S
C48          C49   1.415       .  A
C49          C50   1.404       .  A
C49          H53   1.082       .  S
C50         C556   1.484       .  S
C50          C51   1.395       .  A
C51          H54   1.084       .  S
C55         C671   1.481       .  S
C55          C56   1.402       .  A
C55          C60   1.394       .  A
C56          C57   1.412       .  A
C56          H61   1.082       .  S
C57         C104   1.513       .  S
C57          C58   1.419       .  A
C58          C59   1.409       .  A
C58          H62   1.082       .  S
C59         C542   1.487       .  S
C59          C60   1.394       .  A
C60          H63   1.085       .  S
C64         C531   1.502       .  S
C64          C65   1.413       .  A
C64          C69   1.397       .  A
C65          C66   1.421       .  A
C65          H70   1.079       .  S
C66         C102   1.526       .  S
C66          C67   1.418       .  A
C67          C68   1.406       .  A
C67          H71   1.080       .  S
C68         C643   1.497       .  S
C68          C69   1.397       .  A
C69          H72   1.084       .  S
C73         C514   1.485       .  S
C73          C74   1.394       .  A
C73          C78   1.409       .  A
C74          C75   1.394       .  A
C74          H79   1.085       .  S
C75         C612   1.486       .  S
C75          C76   1.405       .  A
C76          C77   1.411       .  A
C76          H80   1.083       .  S
C77         C103   1.510       .  S
C77          C78   1.416       .  A
C78          H81   1.083       .  S
N82          C87   1.353       .  A
N82          C86   1.357   1_655  A
N82         H114   1.027       .  S
N83          C90   1.354   1_554  A
N83          C91   1.353       .  A
N84          C89   1.354       .  A
N84          C88   1.354   1_655  A
N84         H115   1.032       .  S
N85          C92   1.353   1_554  A
N85          C93   1.354       .  A
C86          C94   1.387       .  A
C86         C102   1.421       .  A
C87         C103   1.418       .  A
C87          C95   1.386       .  A
C88          C96   1.387       .  A
C88         C105   1.419       .  A
C89         C104   1.417       .  A
C89          C97   1.386       .  A
C90         C102   1.420       .  A
C90          C98   1.386       .  A
C91         C105   1.417       .  A
C91          C99   1.384       .  A
C92         C100   1.387       .  A
C92         C103   1.420       .  A
C93         C101   1.386       .  A
C93         C104   1.420       .  A
C94          C95   1.383   1_455  A
C94         H106   1.082       .  S
C95         H107   1.079       .  S
C96          C97   1.380   1_455  A
C96         H108   1.082       .  S
C97         H109   1.081       .  S
C98          C99   1.378   1_556  A
C98         H110   1.082       .  S
C99         H111   1.080       .  S
C100        C101   1.378   1_556  A
C100        H112   1.082       .  S
C101        H113   1.082       .  S
N116        N117   1.328       .  A
N116        N122   1.316       .  A
N116       Mn145   2.234       .  S
N117        C124   1.360       .  A
N118        N120   1.314       .  A
N118        N119   1.310       .  A
N118       Mn134   2.142       .  S
N119        C125   1.338       .  A
N120        N121   1.327       .  A
N120       Mn145   2.234       .  S
N121        C125   1.360       .  A
N122        N123   1.313       .  A
N122       Mn134   2.167       .  S
N123        C124   1.342       .  A
C124        C545   1.477       .  S
C125        C461   1.468       .  S
N126        N132   1.315       .  A
N126        N127   1.330       .  A
N126       Mn156   2.245       .  S
N127        C135   1.363       .  A
N128        N129   1.313       .  A
N128        N130   1.315       .  A
N128       Mn134   2.157   1_455  S
N129        C136   1.342       .  A
N130        N131   1.326       .  A
N130       Mn156   2.237       .  S
N131        C136   1.360       .  A
N132        N133   1.312       .  A
N132       Mn134   2.166   1_455  S
N133        C135   1.343       .  A
Mn134      Cl158   2.489       .  S
C135        C486   1.485       .  S
C136        C559   1.474       .  S
N137        N138   1.329       .  A
N137        N143   1.314       .  A
N137       Mn145   2.231       .  S
N138        C146   1.361       .  A
N139        N141   1.315       .  A
N139        N140   1.313       .  A
N139       Mn157   2.175       .  S
N140        C147   1.345       .  A
N141        N142   1.332       .  A
N141       Mn145   2.254       .  S
N142        C147   1.366       .  A
N143        N144   1.313       .  A
N143       Mn157   2.173       .  S
N144        C146   1.346       .  A
Mn145      Cl158   2.596       .  S
C146        C517   1.488       .  S
C147        C472   1.500       .  S
N148        N149   1.331       .  A
N148        N154   1.314       .  A
N148       Mn156   2.241       .  S
N149        C159   1.365       .  A
N150        N151   1.314       .  A
N150        N152   1.316       .  A
N150       Mn157   2.172   1_455  S
N151        C160   1.343       .  A
N152        N153   1.328       .  A
N152       Mn156   2.236       .  S
N153        C160   1.361       .  A
N154        N155   1.309       .  A
N154       Mn157   2.165   1_455  S
N155        C159   1.343       .  A
Mn156      Cl158   2.599   1_455  S
Mn157      Cl158   2.481       .  S
C159        C500   1.497       .  S
C160        C528   1.480       .  S
C161        C444   1.482       .  S
C161        C162   1.394       .  A
C161        C166   1.407       .  A
C162        C163   1.394       .  A
C162        H167   1.085       .  S
C163        C587   1.490       .  S
C163        C164   1.408       .  A
C164        C165   1.418       .  A
C164        H168   1.083       .  S
C165        C219   1.516       .  S
C165        C166   1.415       .  A
C166        H169   1.083       .  S
C170        C573   1.497       .  S
C170        C171   1.410       .  A
C170        C175   1.397       .  A
C171        C172   1.424       .  A
C171        H176   1.079       .  S
C172        C220   1.539       .  S
C172        C173   1.425       .  A
C173        C174   1.410       .  A
C173        H177   1.076       .  S
C174        C430   1.497       .  S
C174        C175   1.396       .  A
C175        H178   1.084       .  S
C179        C629   1.493       .  S
C179        C180   1.411       .  A
C179        C184   1.397       .  A
C180        C181   1.418       .  A
C180        H185   1.082       .  S
C181        C217   1.520       .  S
C181        C182   1.417       .  A
C182        C183   1.404       .  A
C182        H186   1.082       .  S
C183        C416   1.487       .  S
C183        C184   1.391       .  A
C184        H187   1.085       .  S
C188        C402   1.499       .  S
C188        C189   1.394       .  A
C188        C193   1.414       .  A
C189        C190   1.392       .  A
C189        H194   1.085       .  S
C190        C601   1.489       .  S
C190        C191   1.404       .  A
C191        C192   1.423       .  A
C191        H195   1.078       .  S
C192        C218   1.539       .  S
C192        C193   1.429       .  A
C193        H196   1.076       .  S
N197        C202   1.358   1_545  A
N197        C201   1.356       .  A
N197        H229   1.043   1_545  S
N198        C205   1.357   1_554  A
N198        C206   1.356       .  A
N199        C204   1.357   1_545  A
N199        C203   1.357       .  A
N199        H230   1.043       .  S
N200        C207   1.356   1_554  A
N200        C208   1.356       .  A
C201        C209   1.386       .  A
C201        C217   1.424       .  A
C202        C218   1.419       .  A
C202        C210   1.384       .  A
C203        C211   1.386       .  A
C203        C220   1.422       .  A
C204        C219   1.423       .  A
C204        C212   1.387       .  A
C205        C217   1.421       .  A
C205        C213   1.385       .  A
C206        C220   1.421       .  A
C206        C214   1.385       .  A
C207        C215   1.386       .  A
C207        C218   1.421       .  A
C208        C216   1.385       .  A
C208        C219   1.419       .  A
C209        C210   1.375   1_545  A
C209        H221   1.076       .  S
C210        H222   1.082       .  S
C211        C212   1.379   1_545  A
C211        H223   1.082       .  S
C212        H224   1.081       .  S
C213        C214   1.375   1_556  A
C213        H225   1.081       .  S
C214        H226   1.083       .  S
C215        C216   1.373   1_556  A
C215        H227   1.082       .  S
C216        H228   1.081       .  S
C231        C503   1.494       .  S
C231        C232   1.410       .  A
C231        C236   1.389       .  A
C232        C233   1.425       .  A
C232        H237   1.077       .  S
C233        C289   1.540       .  S
C233        C234   1.424       .  A
C234        C235   1.410       .  A
C234        H238   1.076       .  S
C235        C388   1.493       .  S
C235        C236   1.394       .  A
C236        H239   1.085       .  S
C240        C377   1.481       .  S
C240        C241   1.390       .  A
C240        C245   1.403       .  A
C241        C242   1.394       .  A
C241        H246   1.085       .  S
C242        C458   1.488       .  S
C242        C243   1.409       .  A
C243        C244   1.419       .  A
C243        H247   1.082       .  S
C244        C287   1.514       .  S
C244        C245   1.416       .  A
C245        H248   1.083       .  S
C249        C489   1.486       .  S
C249        C250   1.408       .  A
C249        C254   1.392       .  A
C250        C251   1.419       .  A
C250        H255   1.082       .  S
C251        C290   1.527       .  S
C251        C252   1.422       .  A
C252        C253   1.416       .  A
C252        H256   1.082       .  S
C253        C360   1.495       .  S
C253        C254   1.394       .  A
C254        H257   1.085       .  S
C258        C346   1.494       .  S
C258        C259   1.411       .  A
C258        C263   1.394       .  A
C259        C260   1.426       .  A
C259        H264   1.075       .  S
C260        C288   1.542       .  S
C260        C261   1.426       .  A
C261        C262   1.410       .  A
C261        H265   1.079       .  S
C262        C475   1.494       .  S
C262        C263   1.392       .  A
C263        H266   1.085       .  S
N267        C272   1.355       .  A
N267        C271   1.356   1_565  A
N267        H299   1.045       .  S
N268        C275   1.353       .  A
N268        C276   1.355   1_655  A
N269        C274   1.355       .  A
N269        C273   1.362   1_565  A
N269        H300   1.044       .  S
N270        C277   1.361       .  A
N270        C278   1.358   1_655  A
C271        C279   1.388       .  A
C271        C287   1.422       .  A
C272        C288   1.418       .  A
C272        C280   1.386       .  A
C273        C281   1.385       .  A
C273        C290   1.425       .  A
C274        C289   1.424       .  A
C274        C282   1.387       .  A
C275        C287   1.418       .  A
C275        C283   1.386       .  A
C276        C290   1.420       .  A
C276        C284   1.386       .  A
C277        C285   1.384       .  A
C277        C288   1.425       .  A
C278        C286   1.387       .  A
C278        C289   1.428       .  A
C279        C280   1.378   1_545  A
C279        H291   1.082       .  S
C280        H292   1.082       .  S
C281        C282   1.380   1_545  A
C281        H293   1.080       .  S
C282        H294   1.083       .  S
C283        C284   1.379   1_655  A
C283        H295   1.081       .  S
C284        H296   1.082       .  S
C285        C286   1.373   1_655  A
C285        H297   1.082       .  S
C286        H298   1.082       .  S
N301        N302   1.327       .  A
N301        N307   1.315       .  A
N301       Mn330   2.230       .  S
N302        C309   1.360       .  A
N303        N305   1.315       .  A
N303        N304   1.313       .  A
N303       Mn319   2.170       .  S
N304        C310   1.342       .  A
N305        N306   1.329       .  A
N305       Mn330   2.237       .  S
N306        C310   1.362       .  A
N307        N308   1.310       .  A
N307       Mn319   2.159       .  S
N308        C309   1.343       .  A
C309        C447   1.478       .  S
C310        C349   1.482       .  S
N311        N317   1.315       .  A
N311        N312   1.330       .  A
N311       Mn341   2.242       .  S
N312        C320   1.363       .  A
N313        N314   1.317       .  A
N313        N315   1.316       .  A
N313       Mn319   2.183   1_545  S
N314        C321   1.346       .  A
N315        N316   1.330       .  A
N315       Mn341   2.247       .  S
N316        C321   1.363       .  A
N317        N318   1.310       .  A
N317       Mn319   2.153   1_545  S
N318        C320   1.341       .  A
Mn319      Cl343   2.489       .  S
C320        C374   1.479       .  S
C321        C433   1.493       .  S
N322        N323   1.329       .  A
N322        N328   1.316       .  A
N322       Mn330   2.240       .  S
N323        C331   1.362       .  A
N324        N326   1.315       .  A
N324        N325   1.315       .  A
N324       Mn342   2.172       .  S
N325        C332   1.345       .  A
N326        N327   1.325       .  A
N326       Mn330   2.225       .  S
N327        C332   1.358       .  A
N328        N329   1.313       .  A
N328       Mn342   2.169       .  S
N329        C331   1.342       .  A
Mn330      Cl343   2.595       .  S
C331        C405   1.481       .  S
C332        C391   1.476       .  S
N333        N334   1.330       .  A
N333        N339   1.316       .  A
N333       Mn341   2.246       .  S
N334        C344   1.363       .  A
N335        N336   1.313       .  A
N335        N337   1.314       .  A
N335       Mn342   2.172   1_545  S
N336        C345   1.346       .  A
N337        N338   1.328       .  A
N337       Mn341   2.231       .  S
N338        C345   1.361       .  A
N339        N340   1.313       .  A
N339       Mn342   2.171   1_545  S
N340        C344   1.343       .  A
Mn341      Cl343   2.597   1_545  S
Mn342      Cl343   2.491       .  S
C344        C363   1.482       .  S
C345        C419   1.492       .  S
C346        C347   1.413       .  A
C346        C351   1.413       .  A
C347        C348   1.411       .  A
C347        C352   1.451       .  S
C348        C349   1.412       .  A
C348        C355   1.452       .  S
C349        C350   1.412       .  A
C350        C351   1.416       .  A
C350        C353   1.450       .  S
C351        C354   1.450       .  S
C352        N359   1.157       .  T
C353        N358   1.157       .  T
C354        N356   1.157       .  T
C355        N357   1.157       .  T
C360        C361   1.415       .  A
C360        C365   1.416       .  A
C361        C362   1.415       .  A
C361        C366   1.450       .  S
C362        C363   1.410       .  A
C362        C369   1.447       .  S
C363        C364   1.410       .  A
C364        C365   1.411       .  A
C364        C367   1.452       .  S
C365        C368   1.450       .  S
C366        N373   1.157       .  T
C367        N372   1.157       .  T
C368        N370   1.157       .  T
C369        N371   1.156       .  T
C374        C375   1.412       .  A
C374        C379   1.412       .  A
C375        C376   1.404       .  A
C375        C380   1.450       .  S
C376        C377   1.410       .  A
C376        C383   1.452       .  S
C377        C378   1.410       .  A
C378        C379   1.414       .  A
C378        C381   1.448       .  S
C379        C382   1.447       .  S
C380        N387   1.156       .  T
C381        N386   1.157       .  T
C382        N384   1.157       .  T
C383        N385   1.157       .  T
C388        C389   1.418       .  A
C388        C393   1.412       .  A
C389        C390   1.408       .  A
C389        C394   1.452       .  S
C390        C391   1.408       .  A
C390        C397   1.451       .  S
C391        C392   1.412       .  A
C392        C393   1.412       .  A
C392        C395   1.450       .  S
C393        C396   1.450       .  S
C394        N401   1.157       .  T
C395        N400   1.157       .  T
C396        N398   1.157       .  T
C397        N399   1.157       .  T
C402        C403   1.415       .  A
C402        C407   1.417       .  A
C403        C404   1.411       .  A
C403        C408   1.451       .  S
C404        C405   1.410       .  A
C404        C411   1.451       .  S
C405        C406   1.409       .  A
C406        C407   1.417       .  A
C406        C409   1.450       .  S
C407        C410   1.449       .  S
C408        N415   1.157       .  T
C409        N414   1.157       .  T
C410        N412   1.157       .  T
C411        N413   1.157       .  T
C416        C417   1.412       .  A
C416        C421   1.411       .  A
C417        C418   1.408       .  A
C417        C422   1.452       .  S
C418        C419   1.418       .  A
C418        C425   1.454       .  S
C419        C420   1.413       .  A
C420        C421   1.415       .  A
C420        C423   1.446       .  S
C421        C424   1.450       .  S
C422        N429   1.157       .  T
C423        N428   1.157       .  T
C424        N426   1.157       .  T
C425        N427   1.158       .  T
C430        C431   1.411       .  A
C430        C435   1.413       .  A
C431        C432   1.413       .  A
C431        C436   1.451       .  S
C432        C433   1.414       .  A
C432        C439   1.447       .  S
C433        C434   1.413       .  A
C434        C435   1.418       .  A
C434        C437   1.447       .  S
C435        C438   1.449       .  S
C436        N443   1.157       .  T
C437        N442   1.156       .  T
C438        N440   1.157       .  T
C439        N441   1.156       .  T
C444        C445   1.410       .  A
C444        C449   1.413       .  A
C445        C446   1.403       .  A
C445        C450   1.453       .  S
C446        C447   1.414       .  A
C446        C453   1.453       .  S
C447        C448   1.411       .  A
C448        C449   1.415       .  A
C448        C451   1.450       .  S
C449        C452   1.449       .  S
C450        N457   1.157       .  T
C451        N456   1.157       .  T
C452        N454   1.157       .  T
C453        N455   1.157       .  T
C458        C459   1.414       .  A
C458        C463   1.417       .  A
C459        C460   1.411       .  A
C459        C464   1.449       .  S
C460        C461   1.410       .  A
C460        C467   1.452       .  S
C461        C462   1.407       .  A
C462        C463   1.407       .  A
C462        C465   1.453       .  S
C463        C466   1.450       .  S
C464        N471   1.157       .  T
C465        N470   1.157       .  T
C466        N468   1.157       .  T
C467        N469   1.157       .  T
C472        C473   1.414       .  A
C472        C477   1.421       .  A
C473        C474   1.420       .  A
C473        C478   1.447       .  S
C474        C475   1.413       .  A
C474        C481   1.450       .  S
C475        C476   1.408       .  A
C476        C477   1.412       .  A
C476        C479   1.451       .  S
C477        C480   1.452       .  S
C478        N485   1.157       .  T
C479        N484   1.157       .  T
C480        N482   1.157       .  T
C481        N483   1.157       .  T
C486        C487   1.416       .  A
C486        C491   1.412       .  A
C487        C488   1.408       .  A
C487        C492   1.452       .  S
C488        C489   1.408       .  A
C488        C495   1.452       .  S
C489        C490   1.414       .  A
C490        C491   1.416       .  A
C490        C493   1.450       .  S
C491        C494   1.449       .  S
C492        N499   1.157       .  T
C493        N498   1.157       .  T
C494        N496   1.157       .  T
C495        N497   1.157       .  T
C500        C501   1.414       .  A
C500        C505   1.422       .  A
C501        C502   1.418       .  A
C501        C506   1.449       .  S
C502        C503   1.417       .  A
C502        C509   1.450       .  S
C503        C504   1.410       .  A
C504        C505   1.408       .  A
C504        C507   1.453       .  S
C505        C508   1.454       .  S
C506        N513   1.157       .  T
C507        N512   1.157       .  T
C508        N510   1.158       .  T
C509        N511   1.157       .  T
C514        C515   1.414       .  A
C514        C519   1.410       .  A
C515        C516   1.419       .  A
C515        C520   1.450       .  S
C516        C517   1.414       .  A
C516        C523   1.449       .  S
C517        C518   1.414       .  A
C518        C519   1.404       .  A
C518        C521   1.453       .  S
C519        C522   1.453       .  S
C520        N527   1.157       .  T
C521        N526   1.157       .  T
C522        N524   1.157       .  T
C523        N525   1.157       .  T
C528        C529   1.411       .  A
C528        C533   1.409       .  A
C529        C530   1.414       .  A
C529        C534   1.451       .  S
C530        C531   1.416       .  A
C530        C537   1.450       .  S
C531        C532   1.421       .  A
C532        C533   1.412       .  A
C532        C535   1.452       .  S
C533        C536   1.453       .  S
C534        N541   1.157       .  T
C535        N540   1.157       .  T
C536        N538   1.157       .  T
C537        N539   1.157       .  T
C542        C543   1.411       .  A
C542        C547   1.414       .  A
C543        C544   1.410       .  A
C543        C548   1.450       .  S
C544        C545   1.411       .  A
C544        C551   1.450       .  S
C545        C546   1.410       .  A
C546        C547   1.413       .  A
C546        C549   1.450       .  S
C547        C550   1.450       .  S
C548        N555   1.157       .  T
C549        N554   1.157       .  T
C550        N552   1.157       .  T
C551        N553   1.157       .  T
C556        C557   1.412       .  A
C556        C561   1.413       .  A
C557        C558   1.409       .  A
C557        C562   1.451       .  S
C558        C559   1.411       .  A
C558        C565   1.451       .  S
C559        C560   1.410       .  A
C560        C561   1.411       .  A
C560        C563   1.451       .  S
C561        C564   1.450       .  S
C562        N569   1.157       .  T
C563        N568   1.157       .  T
C564        N566   1.157       .  T
C565        N567   1.157       .  T
C570        C571   1.412       .  A
C570        C575   1.414       .  A
C571        C572   1.412       .  A
C571        C576   1.452       .  S
C572        C573   1.414       .  A
C572        C579   1.451       .  S
C573        C574   1.414       .  A
C574        C575   1.417       .  A
C574        C577   1.450       .  S
C575        C578   1.448       .  S
C576        N583   1.157       .  T
C577        N582   1.157       .  T
C578        N580   1.157       .  T
C579        N581   1.157       .  T
C584        C585   1.411       .  A
C584        C589   1.410       .  A
C585        C586   1.412       .  A
C585        C590   1.451       .  S
C586        C587   1.413       .  A
C586        C593   1.450       .  S
C587        C588   1.416       .  A
C588        C589   1.411       .  A
C588        C591   1.451       .  S
C589        C592   1.452       .  S
C590        N597   1.157       .  T
C591        N596   1.157       .  T
C592        N594   1.157       .  T
C593        N595   1.157       .  T
C598        C599   1.418       .  A
C598        C603   1.414       .  A
C599        C600   1.408       .  A
C599        C604   1.452       .  S
C600        C601   1.408       .  A
C600        C607   1.452       .  S
C601        C602   1.413       .  A
C602        C603   1.419       .  A
C602        C605   1.450       .  S
C603        C606   1.447       .  S
C604        N611   1.157       .  T
C605        N610   1.157       .  T
C606        N608   1.157       .  T
C607        N609   1.157       .  T
C612        C613   1.414       .  A
C612        C617   1.411       .  A
C613        C614   1.413       .  A
C613        C618   1.451       .  S
C614        C615   1.413       .  A
C614        C621   1.449       .  S
C615        C616   1.418       .  A
C616        C617   1.409       .  A
C616        C619   1.452       .  S
C617        C620   1.453       .  S
C618        N625   1.157       .  T
C619        N624   1.157       .  T
C620        N622   1.158       .  T
C621        N623   1.157       .  T
C626        C627   1.411       .  A
C626        C631   1.406       .  A
C627        C628   1.414       .  A
C627        C632   1.449       .  S
C628        C629   1.414       .  A
C628        C635   1.450       .  S
C629        C630   1.417       .  A
C630        C631   1.408       .  A
C630        C633   1.452       .  S
C631        C634   1.451       .  S
C632        N639   1.157       .  T
C633        N638   1.157       .  T
C634        N636   1.157       .  T
C635        N637   1.157       .  T
C640        C641   1.409       .  A
C640        C645   1.411       .  A
C641        C642   1.410       .  A
C641        C646   1.452       .  S
C642        C643   1.418       .  A
C642        C649   1.452       .  S
C643        C644   1.415       .  A
C644        C645   1.415       .  A
C644        C647   1.449       .  S
C645        C648   1.450       .  S
C646        N653   1.157       .  T
C647        N652   1.157       .  T
C648        N650   1.157       .  T
C649        N651   1.158       .  T
C654        C655   1.414       .  A
C654        C659   1.419       .  A
C655        C656   1.418       .  A
C655        C660   1.449       .  S
C656        C657   1.413       .  A
C656        C663   1.449       .  S
C657        C658   1.410       .  A
C658        C659   1.406       .  A
C658        C661   1.453       .  S
C659        C662   1.453       .  S
C660        N667   1.157       .  T
C661        N666   1.157       .  T
C662        N664   1.157       .  T
C663        N665   1.157       .  T
C668        C669   1.417       .  A
C668        C673   1.412       .  A
C669        C670   1.406       .  A
C669        C674   1.452       .  S
C670        C671   1.407       .  A
C670        C677   1.452       .  S
C671        C672   1.413       .  A
C672        C673   1.413       .  A
C672        C675   1.451       .  S
C673        C676   1.448       .  S
C674        N681   1.157       .  T
C675        N680   1.157       .  T
C676        N678   1.157       .  T
C677        N679   1.157       .  T
