geometry optimzed in LAMMPS
_audit_creation_date              2020-11-30 
_audit_creation_method            'lammps2cif' 
_symmetry_space_group_name_H-M    'P1' 
_symmetry_Int_Tables_number       1 
_symmetry_cell_setting            triclinic 
loop_ 
_symmetry_equiv_pos_as_xyz 
  x,y,z 
_cell_length_a                    42.23866855 
_cell_length_b                    41.9230405976765 
_cell_length_c                    36.95013836664461 
_cell_angle_alpha                 90.4871196421547 
_cell_angle_beta                  89.83784004582996 
_cell_angle_gamma                 120.71968738057889 
loop_ 
_atom_site_label 
_atom_site_type_symbol 
_atom_site_fract_x 
_atom_site_fract_y 
_atom_site_fract_z 
_atom_site_charge 
C1          C  0.11923994  0.17601589  0.33456364     0.02000
C2          C  0.09576021  0.15672298  0.30466777     0.02000
C3          C  0.06275715  0.15748232  0.30009002     0.02000
C4          C  0.05450549  0.17801171  0.32551546     0.02000
C5          C  0.07655023  0.19422147  0.35728689     0.02000
C6          C  0.10889769  0.19229715  0.36246525     0.02000
C7          C  0.14167565  0.08626747  0.19557084     0.02000
C8          C  0.13464995  0.04910205  0.19071514     0.02000
C9          C  0.14871941  0.04149725  0.15918861    -0.18500
C10         C  0.17253483  0.06900926  0.13453203     0.02000
C11         C  0.17804510  0.10538205  0.13803724     0.02000
C12         C  0.16122247  0.11212608  0.16778713    -0.18500
H13         H  0.16482447  0.13942652  0.17018439     0.04000
H14         H  0.14287171  0.01334208  0.15502274     0.04000
C15         C  0.41186173  0.06468861  0.19719863     0.02000
C16         C  0.44808052  0.09475378  0.18955343     0.02000
C17         C  0.45279267  0.11429352  0.15732206    -0.18500
C18         C  0.42349983  0.10854598  0.13438620     0.02000
C19         C  0.38732255  0.07808843  0.14158626     0.02000
C20         C  0.38261622  0.05834747  0.17392328    -0.18500
H21         H  0.35504319  0.03672493  0.18120909     0.04000
H22         H  0.48050135  0.13564035  0.15005269     0.04000
C23         C  0.11653524  0.44930425  0.33136017     0.02000
C24         C  0.08945364  0.43708790  0.30351013     0.02000
C25         C  0.05701042  0.40179539  0.30682443     0.02000
C26         C  0.05313643  0.37854225  0.33639735     0.02000
C27         C  0.08028865  0.39099644  0.36407665     0.02000
C28         C  0.11306958  0.42609620  0.36092651     0.02000
C29         C  0.34877122  0.45732348  0.33937494     0.02000
C30         C  0.36601288  0.45204868  0.30845916     0.02000
C31         C  0.36511416  0.41796364  0.30435686     0.02000
C32         C  0.34851768  0.39071427  0.33166127     0.02000
C33         C  0.32893245  0.39487437  0.36121438     0.02000
C34         C  0.32848449  0.42862258  0.36486726     0.02000
C35         C  0.44085062  0.34511203  0.19828421     0.02000
C36         C  0.41255331  0.35335427  0.19211098     0.02000
C37         C  0.39049299  0.33783883  0.16095149    -0.18500
C38         C  0.39458765  0.31408718  0.13638945     0.02000
C39         C  0.42407232  0.30741151  0.14197761     0.02000
C40         C  0.44421513  0.32071637  0.17430539    -0.18500
H41         H  0.46471024  0.31317773  0.18010519     0.04000
H42         H  0.36933298  0.34451529  0.15552843     0.04000
C43         C  0.27577432  0.98964171  0.00943481     0.02000
C44         C  0.26733353  0.00972176  0.03530452     0.02000
C45         C  0.23458997  0.01098791  0.03039100     0.02000
C46         C  0.21135187  0.99227882  0.00002308     0.02000
C47         C  0.22840475  0.48591689  0.96970769     0.02000
C48         C  0.26411500  0.49052925  0.97295578     0.02000
C49         C  0.28364394  0.28112756  0.99936632     0.02000
C50         C  0.27881818  0.25592103  0.02744910     0.02000
C51         C  0.24546713  0.22135577  0.02908754     0.02000
C52         C  0.21880649  0.21173843  0.00135930     0.02000
C53         C  0.22407324  0.23667431  0.97287617     0.02000
C54         C  0.25741238  0.27137514  0.97104092     0.02000
C55         C  0.01490560  0.29073737  0.00779521     0.02000
C56         C  0.49302977  0.26133390  0.03194831     0.02000
C57         C  0.49055657  0.22643485  0.02787888     0.02000
C58         C  0.00835727  0.22134826  0.99867642     0.02000
C59         C  0.02744921  0.24911930  0.97218984     0.02000
C60         C  0.03109850  0.28438017  0.97686376     0.02000
C61         C  0.16814452  0.11938994  0.67087866     0.02000
C62         C  0.18565200  0.11365971  0.64021308     0.02000
C63         C  0.18194896  0.07821642  0.63467586     0.02000
C64         C  0.15981471  0.04914223  0.65938791     0.02000
C65         C  0.14289457  0.05488252  0.69013516     0.02000
C66         C  0.14736770  0.09037484  0.69603328     0.02000
C67         C  0.10747492  0.18120096  0.86593193     0.02000
C68         C  0.07855768  0.18857044  0.85960339     0.02000
C69         C  0.05654830  0.17245002  0.82849600    -0.18500
C70         C  0.06054500  0.14805620  0.80488367     0.02000
C71         C  0.08947562  0.14085161  0.81158230     0.02000
C72         C  0.11065234  0.15600995  0.84300507    -0.18500
H73         H  0.13158232  0.14911726  0.84900065     0.04000
H74         H  0.03570296  0.17932776  0.82222381     0.04000
C75         C  0.07848261  0.39755064  0.86588928     0.02000
C76         C  0.11487654  0.42695250  0.85764394     0.02000
C77         C  0.11944354  0.44682159  0.82560206    -0.18500
C78         C  0.08989912  0.44120334  0.80300743     0.02000
C79         C  0.05361890  0.41159035  0.81127820     0.02000
C80         C  0.04900382  0.39198538  0.84351242    -0.18500
H81         H  0.02134178  0.37060037  0.85093381     0.04000
H82         H  0.14721184  0.46756241  0.81789356     0.04000
C83         C  0.45905025  0.11149920  0.66098951     0.02000
C84         C  0.45181182  0.08755449  0.69095878     0.02000
C85         C  0.41724739  0.05457354  0.69371229     0.02000
C86         C  0.39111356  0.04533688  0.66557540     0.02000
C87         C  0.39685176  0.07026977  0.63696960     0.02000
C88         C  0.43172149  0.10355051  0.63412685     0.02000
C89         C  0.44454028  0.32396110  0.67780660     0.02000
C90         C  0.43429591  0.34193568  0.70439159     0.02000
C91         C  0.40000545  0.34037225  0.70059952     0.02000
C92         C  0.37607666  0.31979970  0.67132015     0.02000
C93         C  0.38808551  0.30572806  0.64275730     0.02000
C94         C  0.42272127  0.30774963  0.64599264     0.02000
C95         C  0.31408692  0.42393428  0.86402134     0.02000
C96         C  0.30561097  0.38631831  0.85957666     0.02000
C97         C  0.31862126  0.37751947  0.82815227    -0.18500
C98         C  0.34239077  0.40422694  0.80290452     0.02000
C99         C  0.34953729  0.44126404  0.80606795     0.02000
C100        C  0.33458882  0.44956904  0.83643317    -0.18500
H101        H  0.33999454  0.47755560  0.83921208     0.04000
H102        H  0.31201262  0.34904244  0.82456214     0.04000
C103        C  0.01272239  0.24232941  0.46915505     0.02000
C104        C  0.01916176  0.27880952  0.47535033     0.02000
C105        C  0.00274697  0.28453167  0.50593776    -0.18500
C106        C  0.48194635  0.25648951  0.53181937     0.02000
C107        C  0.47612352  0.22020545  0.52564235     0.02000
C108        C  0.98921832  0.21372103  0.49301356    -0.18500
H109        H  0.98311392  0.18567800  0.48757763     0.04000
H110        H  0.00729188  0.31208463  0.51078604     0.04000
C111        C  0.25901624  0.27965596  0.47151052     0.02000
C112        C  0.22162482  0.25015649  0.47656275     0.02000
C113        C  0.21357385  0.22791143  0.50760962    -0.18500
C114        C  0.24056492  0.23158507  0.53268472     0.02000
C115        C  0.27749564  0.26212552  0.52886069     0.02000
C116        C  0.28494213  0.28549158  0.49888078    -0.18500
H117        H  0.31263145  0.30864222  0.49606043     0.04000
H118        H  0.18531168  0.20575307  0.51144271     0.04000
C119        C  0.26241589  0.48234292  0.47322498     0.02000
C120        C  0.23212594  0.48812172  0.46758750     0.02000
C121        C  0.22845020  0.01304793  0.49286141    -0.18500
C122        C  0.24899555  0.02733689  0.52518354     0.02000
C123        C  0.27890345  0.02105772  0.53045196     0.02000
C124        C  0.28307201  0.99739225  0.50581157    -0.18500
H125        H  0.30313198  0.48993061  0.51226085     0.04000
H126        H  0.20704047  0.01934763  0.48733078     0.04000
O127        O  0.45069916  0.01622700  0.97413654    -0.88600
C128        C  0.02305813  0.06125328  0.05496743     0.87400
Mg129      Mg  0.40846475  0.45556692  0.97668138     1.58100
O130        O  0.05773339  0.04438162  0.97561228    -0.88300
O131        O  0.99475568  0.05225839  0.93834089    -0.75700
C132        C  0.99257968  0.36728386  0.00716836     0.92500
O133        O  0.44289092  0.00097006  0.06207324    -0.75500
O134        O  0.46293622  0.36696762  0.01076904    -0.83000
Mg135      Mg  0.46024972  0.04878595  0.02240277     1.58000
C136        C  0.12652698  0.00000717  0.98449325     0.92400
O137        O  0.47167812  0.09658764  0.98683037    -0.81300
H138        H  0.07329111  0.05507756  0.92381114    -0.06600
C139        C  0.03127897  0.46699160  0.05392242     0.87300
O140        O  0.44391592  0.44323477  0.93715572    -0.75800
O141        O  0.00996386  0.05916625  0.02453149    -0.88500
O142        O  0.12391813  0.02845970  0.99082086    -0.81300
C143        C  0.12306097  0.12821753  0.01683231     0.92500
C144        C  0.99466888  0.12554928  0.98253011     0.92400
Mg145      Mg  0.04078819  0.45312434  0.97489436     1.58000
O146        O  0.02354614  0.39709994  0.00268118    -0.81300
O147        O  0.05967506  0.50477240  0.93935975    -0.75500
O148        O  0.09182408  0.12520677  0.01310474    -0.81300
O149        O  0.40402536  0.03772920  0.02136773    -0.83100
O150        O  0.40662624  0.37775220  0.97719215    -0.81400
C151        C  0.06376301  0.03536722  0.94570600     0.86800
O152        O  0.48475236  0.43992850  0.97082988    -0.88500
O153        O  0.04359868  0.48195791  0.02440382    -0.88600
O154        O  0.49889198  0.44204216  0.05771628    -0.75700
Mg155      Mg  0.04254603  0.08604769  0.97817802     1.58000
O156        O  0.12706328  0.10027196  0.01816443    -0.83100
H157        H  0.44424172  0.01824250  0.92072942    -0.06800
O158        O  0.43828655  0.45404320  0.02208488    -0.88300
H159        H  0.42549328  0.44226823  0.07437426    -0.06600
H160        H  0.48283438  0.43307194  0.91702619    -0.06800
C161        C  0.43344165  0.46227299  0.05287856     0.86800
C162        C  0.46261595  0.02894496  0.94375768     0.87400
C163        C  0.47123124  0.43849819  0.94075978     0.87400
H164        H  0.04901396  0.47653979  0.07745678    -0.06800
O165        O  0.04891404  0.05457903  0.06001976    -0.75800
Mg166      Mg  0.45165723  0.41191888  0.01657020     1.58000
H167        H  0.01186312  0.06835593  0.07792463    -0.06800
C168        C  0.37349987  0.00805629  0.01790692     0.92400
O169        O  0.36619498  0.39511101  0.98435018    -0.83000
C170        C  0.37406841  0.36984579  0.98253075     0.92400
O171        O  0.02654921  0.12957024  0.98194489    -0.83000
Mg172      Mg  0.08402201  0.03998479  0.02293620     1.58200
O173        O  0.36906182  0.46515895  0.01077753    -0.81300
O174        O  0.10026076  0.46914807  0.98132049    -0.83000
O175        O  0.28143890  0.17944237  0.29862570    -0.88600
C176        C  0.35572854  0.22347330  0.38384720     0.87400
Mg177      Mg  0.24058370  0.12218060  0.29917470     1.58100
O178        O  0.39252012  0.20928229  0.30369955    -0.88300
O179        O  0.32948239  0.21956908  0.26761265    -0.75700
C180        C  0.31978525  0.02909878  0.33262232     0.92500
O181        O  0.26721930  0.15651128  0.38591808    -0.75500
O182        O  0.28943554  0.02782593  0.33216304    -0.83000
Mg183      Mg  0.28604766  0.20743686  0.34943221     1.58000
C184        C  0.45537185  0.15603123  0.31653594     0.92400
O185        O  0.29971463  0.26016407  0.32016918    -0.81300
H186        H  0.40928096  0.22115409  0.25229227    -0.06600
C187        C  0.35992124  0.12775946  0.38033628     0.87300
O188        O  0.27647318  0.11009206  0.25996605    -0.75800
O189        O  0.34262782  0.22140926  0.35349015    -0.88500
O190        O  0.45667549  0.18673518  0.32299667    -0.81300
C191        C  0.45751437  0.29056747  0.34956851     0.92500
C192        C  0.32891061  0.29154725  0.31786146     0.92400
Mg193      Mg  0.36921111  0.11520520  0.30164478     1.58000
O194        O  0.35040219  0.05947865  0.32996249    -0.81300
O195        O  0.39151168  0.16795065  0.26686617    -0.75500
O196        O  0.42648647  0.28796839  0.34471707    -0.81300
O197        O  0.22700012  0.19152919  0.34388976    -0.83100
O198        O  0.23725618  0.04469034  0.29764544    -0.81400
C199        C  0.39838341  0.20065188  0.27348855     0.86800
O200        O  0.31524454  0.10473636  0.29520369    -0.88500
O201        O  0.37281710  0.14401720  0.35146176    -0.88600
O202        O  0.32663487  0.10143493  0.38251224    -0.75700
Mg203      Mg  0.37679559  0.25097381  0.30864279     1.58000
O204        O  0.46133628  0.26233665  0.34976691    -0.83100
H205        H  0.27918043  0.18550825  0.24524359    -0.06800
O206        O  0.27202287  0.12090331  0.34573477    -0.88300
H207        H  0.25243416  0.10304467  0.39634846    -0.06600
H208        H  0.31552182  0.09937543  0.24129694    -0.06800
C209        C  0.26287819  0.12535150  0.37698000     0.86800
C210        C  0.29567955  0.19449573  0.26962952     0.87400
C211        C  0.30315985  0.10448586  0.26460699     0.87400
H212        H  0.37716695  0.13626819  0.40420977    -0.06800
O213        O  0.38161688  0.21685573  0.38864099    -0.75800
Mg214      Mg  0.28088917  0.07444926  0.33932964     1.58000
H215        H  0.34475094  0.23076242  0.40685165    -0.06800
C216        C  0.19906691  0.15917171  0.34013226     0.92400
O217        O  0.19702360  0.06176388  0.30599177    -0.83000
C218        C  0.20503751  0.03662024  0.30497492     0.92400
O219        O  0.36058481  0.29494637  0.31570941    -0.83000
Mg220      Mg  0.41621972  0.20137344  0.35181533     1.58200
O221        O  0.20180220  0.13099350  0.33389082    -0.81300
O222        O  0.42550195  0.12622793  0.31019408    -0.83000
O223        O  0.12612625  0.35968407  0.64650875    -0.88600
C224        C  0.19837873  0.39780438  0.73042164     0.87400
Mg225      Mg  0.08023794  0.30442653  0.64896030     1.58100
O226        O  0.22764949  0.37675646  0.65035850    -0.88300
O227        O  0.17341902  0.39663284  0.61299779    -0.75700
C228        C  0.14839111  0.19884412  0.68402305     0.92500
O229        O  0.10908123  0.34053561  0.73272014    -0.75500
O230        O  0.12003863  0.20139766  0.68864236    -0.83000
Mg231      Mg  0.13323214  0.39120485  0.69528976     1.58000
C232        C  0.28946064  0.32538876  0.65657019     0.92400
O233        O  0.15449236  0.44521457  0.66440937    -0.81300
H234        H  0.24203453  0.38685157  0.59821689    -0.06600
C235        C  0.19644568  0.30174008  0.72953113     0.87300
O236        O  0.11000092  0.28316003  0.61213554    -0.75800
O237        O  0.18591044  0.39735059  0.70002032    -0.88500
O238        O  0.28926589  0.35519107  0.66220237    -0.81300
C239        C  0.29746410  0.45867666  0.68941648     0.92500
C240        C  0.18586861  0.47408920  0.65956870     0.92400
Mg241      Mg  0.20130563  0.28291542  0.65086647     1.58000
O242        O  0.18039552  0.22732800  0.67988637    -0.81300
O243        O  0.22325571  0.33377002  0.61384870    -0.75500
O244        O  0.26599288  0.45389666  0.69484369    -0.81300
O245        O  0.07732971  0.38382648  0.68917193    -0.83100
O246        O  0.05971690  0.21529133  0.66171128    -0.81400
C247        C  0.23159636  0.36696384  0.61996277     0.86800
O248        O  0.14641754  0.27448473  0.64733975    -0.88500
O249        O  0.21006389  0.31480682  0.69975438    -0.88600
O250        O  0.16209029  0.27928495  0.73314135    -0.75700
Mg251      Mg  0.22056627  0.42335382  0.65469872     1.58000
O252        O  0.30202377  0.43108536  0.68770175    -0.83100
H253        H  0.12136261  0.36510099  0.59332818    -0.06800
O254        O  0.10393148  0.29660544  0.69708422    -0.88300
H255        H  0.08823766  0.28728468  0.74894070    -0.06600
H256        H  0.14244134  0.26353747  0.59420166    -0.06800
C257        C  0.09971375  0.30697513  0.72708380     0.86800
C258        C  0.13922654  0.37346086  0.61674240     0.87400
C259        C  0.13340253  0.27309872  0.61706693     0.87400
H260        H  0.21403357  0.31019948  0.75315958    -0.06800
O261        O  0.22316135  0.38944085  0.73492291    -0.75800
Mg262      Mg  0.11244682  0.25039953  0.69421397     1.58000
H263        H  0.18802537  0.40548704  0.75365580    -0.06800
C264        C  0.04687252  0.35379703  0.68542060     0.92400
O265        O  0.03116149  0.24681409  0.65409961    -0.83000
C266        C  0.03043033  0.21643892  0.65757925     0.92400
O267        O  0.21509589  0.47296489  0.65882824    -0.83000
Mg268      Mg  0.25456435  0.37133300  0.69607376     1.58200
O269        O  0.04496158  0.32299177  0.67904425    -0.81300
O270        O  0.26006862  0.29364403  0.65582964    -0.83000
C271        C  0.47808629  0.32102597  0.68310912    -0.16700
C272        C  0.01293934  0.35522162  0.68644430    -0.31900
H273        H  0.47539554  0.29409018  0.67865546     0.12300
H274        H  0.01551299  0.38232373  0.68812033     0.12900
C275        C  0.33693393  0.31050230  0.67178633    -0.16700
C276        C  0.32559955  0.32918380  0.65155994    -0.31900
H277        H  0.31825545  0.29014814  0.69111759     0.12300
H278        H  0.34560912  0.35255441  0.63574788     0.12900
C279        C  0.37634164  0.38350164  0.71497424    -0.13600
C280        C  0.38835376  0.35963137  0.72710501     0.08500
C281        C  0.38730690  0.35286993  0.76427358    -0.13600
C282        C  0.37462917  0.36950894  0.78856071    -0.13600
C283        C  0.36020804  0.39132485  0.77624536     0.08500
C284        C  0.36059776  0.39753324  0.73896913    -0.13600
H285        H  0.37816114  0.39045262  0.68665166     0.12500
H286        H  0.39576254  0.33426450  0.77457942     0.12500
H287        H  0.37487180  0.36418016  0.81716590     0.12500
H288        H  0.34895057  0.41332994  0.72840781     0.12500
C289        C  0.33619878  0.30971527  0.56159689    -0.13600
C290        C  0.30941711  0.27206874  0.55463092     0.08500
C291        C  0.31418928  0.24526917  0.57256533    -0.13600
C292        C  0.33857379  0.25551667  0.60204676    -0.13600
C293        C  0.36523224  0.29299072  0.60864291     0.08500
C294        C  0.36501551  0.31968218  0.58623998    -0.13600
H295        H  0.33448966  0.33201953  0.54911852     0.12500
H296        H  0.29696944  0.21612552  0.56604911     0.12500
H297        H  0.33586678  0.23406079  0.62005674     0.12500
H298        H  0.38475395  0.34883433  0.59083175     0.12500
C299        C  0.47433682  0.31628886  0.60465357    -0.13600
C300        C  0.43751065  0.29442685  0.61608803     0.08500
C301        C  0.41597930  0.25947068  0.59977324    -0.13600
C302        C  0.42954453  0.24859788  0.57076671    -0.13600
C303        C  0.46719083  0.26764024  0.56301906     0.08500
C304        C  0.48963354  0.30191044  0.58067044    -0.13600
H305        H  0.49174827  0.34411113  0.61519643     0.12500
H306        H  0.38869811  0.24037998  0.60896028     0.12500
H307        H  0.41015918  0.22669566  0.55335284     0.12500
H308        H  0.01897092  0.31795573  0.57393825     0.12500
C309        C  0.35892142  0.00745508  0.66492980    -0.16700
C310        C  0.32782632  0.49676572  0.68542529    -0.31900
H311        H  0.36099731  0.98595556  0.65040603     0.12300
H312        H  0.32498216  0.51844035  0.69853497     0.12900
C313        C  0.49519409  0.14639289  0.65899660    -0.16700
C314        C  0.99455943  0.18164577  0.65849136    -0.31900
H315        H  0.51971443  0.14475280  0.65497445     0.12300
H316        H  0.96959199  0.18307324  0.65907584     0.12900
C317        C  0.37785033  0.02759916  0.74871885    -0.13600
C318        C  0.40626768  0.03032761  0.72686342     0.08500
C319        C  0.42087061  0.00767248  0.73515832    -0.13600
C320        C  0.40286613  0.47871583  0.76081283    -0.13600
C321        C  0.37059150  0.47226798  0.77902169     0.08500
C322        C  0.35857690  0.49756619  0.77249527    -0.13600
H323        H  0.36753327  0.04620382  0.74453941     0.12500
H324        H  0.44385840  0.01013064  0.71977757     0.12500
H325        H  0.41504941  0.46207625  0.76667918     0.12500
H326        H  0.33398488  0.49433434  0.78513224     0.12500
C327        C  0.33089830  0.05157626  0.62079606    -0.13600
C328        C  0.36661285  0.06063873  0.60983486     0.08500
C329        C  0.37338606  0.06066486  0.57271982    -0.13600
C330        C  0.34549852  0.05185019  0.54751916    -0.13600
C331        C  0.30884562  0.03915387  0.55845371     0.08500
C332        C  0.30193668  0.03923853  0.59562188    -0.13600
H333        H  0.32514587  0.05336295  0.64897039     0.12500
H334        H  0.40037148  0.06753735  0.56310269     0.12500
H335        H  0.35223293  0.05284355  0.51908032     0.12500
H336        H  0.27423720  0.02905888  0.60535635     0.12500
C337        C  0.47354309  0.14465259  0.58410506    -0.13600
C338        C  0.44046473  0.13069211  0.60365659     0.08500
C339        C  0.41737601  0.14465312  0.59538370    -0.13600
C340        C  0.42737135  0.17181167  0.56874059    -0.13600
C341        C  0.46289166  0.18984644  0.55343926     0.08500
C342        C  0.48549274  0.17506659  0.56120617    -0.13600
H343        H  0.49133148  0.13342378  0.58820593     0.12500
H344        H  0.39113998  0.13398420  0.60887871     0.12500
H345        H  0.40630801  0.17670626  0.55942720     0.12500
H346        H  0.51238016  0.18661633  0.54878772     0.12500
C347        C  0.46813440  0.33897350  0.75872995    -0.13600
C348        C  0.45923425  0.36030116  0.73662888     0.08500
C349        C  0.97934723  0.40079098  0.74287284    -0.13600
C350        C  0.00840818  0.41733208  0.76843374    -0.13600
C351        C  0.02046439  0.39581537  0.78637913     0.08500
C352        C  0.49885677  0.35589562  0.78145352    -0.13600
H353        H  0.45334654  0.30904571  0.75575146     0.12500
H354        H  0.97273599  0.41829266  0.72713574     0.12500
H355        H  0.02246278  0.44702761  0.77287797     0.12500
H356        H  0.50655984  0.33808136  0.79507021     0.12500
C357        C  0.01480559  0.10925692  0.71317976    -0.13600
C358        C  0.47937751  0.09905480  0.72084083     0.08500
C359        C  0.47006522  0.10376536  0.75611877    -0.13600
C360        C  0.49648136  0.11718497  0.78352122    -0.13600
C361        C  0.03250103  0.13006033  0.77540614     0.08500
C362        C  0.04207433  0.12721361  0.73960218    -0.13600
H363        H  0.02271920  0.10489768  0.68654737     0.12500
H364        H  0.44244043  0.09743893  0.76249241     0.12500
H365        H  0.48794856  0.11894675  0.81077220     0.12500
H366        H  0.07054330  0.13867360  0.73189381     0.12500
C367        C  0.17206776  0.15647524  0.67718956    -0.16700
C368        C  0.14327693  0.16144180  0.68055244    -0.31900
H369        H  0.19926129  0.18013882  0.68168680     0.12300
H370        H  0.11542513  0.13778821  0.67836300     0.12900
C371        C  0.18870252  0.51020024  0.65704054    -0.16700
C372        C  0.15703335  0.01282442  0.65525921    -0.31900
H373        H  0.21547854  0.53518033  0.66062126     0.12300
H374        H  0.13047002  0.98838490  0.64972052     0.12900
C375        C  0.13932083  0.03401256  0.75448611    -0.13600
C376        C  0.12563878  0.02551999  0.71900248     0.08500
C377        C  0.09784031  0.48649283  0.71092206    -0.13600
C378        C  0.08637181  0.45923827  0.73774978    -0.13600
C379        C  0.09962694  0.46901269  0.77338789     0.08500
C380        C  0.12486992  0.00716870  0.78142694    -0.13600
H381        H  0.16148720  0.06160674  0.76150439     0.12500
H382        H  0.08528520  0.47850478  0.68440217     0.12500
H383        H  0.06741191  0.43066474  0.73043486     0.12500
H384        H  0.13542986  0.01563844  0.80866747     0.12500
C385        C  0.09428437  0.07791522  0.73826548    -0.13600
C386        C  0.13204276  0.09841094  0.72946630     0.08500
C387        C  0.15554178  0.12874564  0.75155610    -0.13600
C388        C  0.14124590  0.14192399  0.77772790    -0.13600
C389        C  0.10320823  0.12329510  0.78509702     0.08500
C390        C  0.08025178  0.08946043  0.76690668    -0.13600
H391        H  0.07557801  0.05370975  0.72237924     0.12500
H392        H  0.18493585  0.14407374  0.74661162     0.12500
H393        H  0.16013614  0.16765797  0.79149925     0.12500
H394        H  0.05118676  0.07331093  0.77321647     0.12500
C395        C  0.17903885  0.03948470  0.58065765    -0.13600
C396        C  0.20044438  0.07013255  0.60334333     0.08500
C397        C  0.23910672  0.08895530  0.59878482    -0.13600
C398        C  0.25559920  0.07626743  0.57327416    -0.13600
C399        C  0.23392861  0.04352422  0.55274034     0.08500
C400        C  0.19531909  0.02578042  0.55704257    -0.13600
H401        H  0.14714627  0.52453142  0.58042050     0.12500
H402        H  0.25658751  0.11284084  0.61562953     0.12500
H403        H  0.28520534  0.09176131  0.57006695     0.12500
H404        H  0.17509200  0.50017475  0.54035960     0.12500
C405        C  0.22989322  0.18021487  0.62116927    -0.13600
C406        C  0.20351084  0.14332574  0.61191650     0.08500
C407        C  0.19118099  0.13566331  0.57590230    -0.13600
C408        C  0.20454097  0.16407409  0.55029825    -0.13600
C409        C  0.22816926  0.20153384  0.56053733     0.08500
C410        C  0.23881528  0.20917904  0.59703252    -0.13600
H411        H  0.24274396  0.18695388  0.64756443     0.12500
H412        H  0.17086229  0.10771716  0.56756773     0.12500
H413        H  0.19557533  0.15670838  0.52248319     0.12500
H414        H  0.25565987  0.23750244  0.60653724     0.12500
C415        C  0.99060043  0.15790873  0.98017932    -0.16700
C416        C  0.01325462  0.18890137  0.99862038    -0.31900
H417        H  0.47186960  0.15651286  0.96576306     0.12300
H418        H  0.03594232  0.19083897  0.01424187     0.12900
C419        C  0.01848858  0.32737641  0.01271451    -0.16700
C420        C  0.98971683  0.33123632  0.00682745    -0.31900
H421        H  0.04453855  0.35097876  0.02132428     0.12300
H422        H  0.46291903  0.30656402  0.00073530     0.12900
C423        C  0.07325528  0.35063708  0.95571725    -0.13600
C424        C  0.04746526  0.31316399  0.94766980     0.08500
C425        C  0.03377339  0.30401519  0.91221103    -0.13600
C426        C  0.04578161  0.33129521  0.88574343    -0.13600
C427        C  0.06899053  0.36912790  0.89463737     0.08500
C428        C  0.08091140  0.37849186  0.93061609    -0.13600
H429        H  0.08625805  0.35866680  0.98200652     0.12500
H430        H  0.51439827  0.27498520  0.90434683     0.12500
H431        H  0.03570892  0.32282684  0.85835437     0.12500
H432        H  0.09733306  0.40725009  0.93900990     0.12500
C433        C  0.02921411  0.19442650  0.89157131    -0.13600
C434        C  0.06711091  0.20892301  0.88546029     0.08500
C435        C  0.09216997  0.24179108  0.90419459    -0.13600
C436        C  0.07977141  0.25622850  0.93181480    -0.13600
C437        C  0.04192848  0.23957714  0.93925231     0.08500
C438        C  0.01696022  0.21057473  0.91677155    -0.13600
H439        H  0.00862446  0.16958166  0.87770681     0.12500
H440        H  0.12136827  0.25540742  0.89866818     0.12500
H441        H  0.09964322  0.27956725  0.94797278     0.12500
H442        H  0.48975820  0.19948414  0.91979401     0.12500
C443        C  0.18635617  0.17360504  0.00087096    -0.16700
C444        C  0.15530730  0.16542171  0.01838115    -0.31900
H445        H  0.18845100  0.15220694  0.98616474     0.12300
H446        H  0.15262515  0.18715504  0.03154881     0.12900
C447        C  0.31371106  0.32016148  0.00195687    -0.16700
C448        C  0.34604623  0.33098339  0.98619512    -0.31900
H449        H  0.30752890  0.34042289  0.01312854     0.12300
H450        H  0.35192756  0.31062923  0.97479175     0.12900
C451        C  0.29984953  0.31141009  0.92110262    -0.13600
C452        C  0.26636990  0.29790432  0.93966581     0.08500
C453        C  0.24291612  0.31049947  0.92807053    -0.13600
C454        C  0.25403508  0.33695458  0.90021897    -0.13600
C455        C  0.29104137  0.35673393  0.88841380     0.08500
C456        C  0.31329606  0.34226185  0.89855463    -0.13600
H457        H  0.31645366  0.29892202  0.92515694     0.12500
H458        H  0.21561818  0.29898991  0.93942864     0.12500
H459        H  0.23318427  0.34035264  0.88722945     0.12500
H460        H  0.34073820  0.35373551  0.88745353     0.12500
C461        C  0.20188424  0.22441706  0.90852063    -0.13600
C462        C  0.19452625  0.22591868  0.94522937     0.08500
C463        C  0.15863802  0.21641273  0.95554871    -0.13600
C464        C  0.12979038  0.20131473  0.93039619    -0.13600
C465        C  0.13718820  0.19998222  0.89358155     0.08500
C466        C  0.17393271  0.21315988  0.88293002    -0.13600
H467        H  0.22925680  0.23186067  0.89964082     0.12500
H468        H  0.15268595  0.21972826  0.98328151     0.12500
H469        H  0.10187582  0.19063600  0.93976970     0.12500
H470        H  0.18072998  0.21291133  0.85467431     0.12500
C471        C  0.30676142  0.98309490  0.01544174    -0.16700
C472        C  0.34096427  0.01159256  0.02006743    -0.31900
H473        H  0.30204378  0.95533983  0.01092629     0.12300
H474        H  0.30553503  0.46025411  0.01788112     0.12900
C475        C  0.17300116  0.98459550  0.99955881    -0.16700
C476        C  0.16336712  0.00543060  0.98065316    -0.31900
H477        H  0.15733815  0.46706479  0.01468915     0.12300
H478        H  0.18406224  0.02950548  0.96606202     0.12900
C479        C  0.15553092  0.41705651  0.90263149    -0.13600
C480        C  0.14826038  0.44079728  0.88219902     0.08500
C481        C  0.17284731  0.47938462  0.88660777    -0.13600
C482        C  0.20161274  0.49333890  0.91200414    -0.13600
C483        C  0.20480718  0.46956407  0.93627304     0.08500
C484        C  0.18062599  0.43110140  0.93166278    -0.13600
H485        H  0.13958506  0.38735831  0.89841587     0.12500
H486        H  0.16907526  0.49919664  0.87148633     0.12500
H487        H  0.21699099  0.01769804  0.91840940     0.12500
H488        H  0.17957638  0.41168641  0.95130774     0.12500
C489        C  0.31260647  0.49412256  0.92958056    -0.13600
C490        C  0.27781407  0.47346615  0.94588131     0.08500
C491        C  0.25720246  0.43545633  0.93827144    -0.13600
C492        C  0.26792708  0.41972372  0.91107785    -0.13600
C493        C  0.30303473  0.43931132  0.89556706     0.08500
C494        C  0.32595660  0.47670120  0.90683158    -0.13600
H495        H  0.32345577  0.01196574  0.94528804     0.12500
H496        H  0.23240865  0.41770997  0.95299174     0.12500
H497        H  0.24762863  0.39352150  0.90125481     0.12500
H498        H  0.35378771  0.49329030  0.89671907     0.12500
C499        C  0.41866448  0.25950354  0.09415656    -0.13600
C500        C  0.43969862  0.29251484  0.11431203     0.08500
C501        C  0.47824500  0.31198037  0.10957059    -0.13600
C502        C  0.49512339  0.29958810  0.08551884    -0.13600
C503        C  0.47410321  0.26913910  0.06258476     0.08500
C504        C  0.43557313  0.24862591  0.06763614    -0.13600
H505        H  0.38922240  0.24269941  0.09819412     0.12500
H506        H  0.99607311  0.33738739  0.12535690     0.12500
H507        H  0.02472336  0.31505369  0.08383839     0.12500
H508        H  0.41860478  0.22453770  0.05082202     0.12500
C509        C  0.37308701  0.29395688  0.07140948    -0.13600
C510        C  0.36527252  0.29549853  0.10810965     0.08500
C511        C  0.32822205  0.28145576  0.11818157    -0.13600
C512        C  0.30032215  0.26870813  0.09224841    -0.13600
C513        C  0.30807058  0.26686543  0.05568882     0.08500
C514        C  0.34445637  0.27767678  0.04594771    -0.13600
H515        H  0.40117113  0.30558414  0.06221847     0.12500
H516        H  0.32094810  0.28178884  0.14626047     0.12500
H517        H  0.27279290  0.26095480  0.10078866     0.12500
H518        H  0.35096092  0.27451805  0.01837409     0.12500
C519        C  0.31875392  0.99395270  0.33443076    -0.16700
C520        C  0.34942374  0.49262119  0.34355980    -0.31900
H521        H  0.29366099  0.96881961  0.32612053     0.12300
H522        H  0.37451690  0.51725191  0.35248656     0.12900
C523        C  0.35303411  0.35787725  0.32879142    -0.16700
C524        C  0.32491487  0.32435700  0.31966680    -0.31900
H525        H  0.38054167  0.36225540  0.33207389     0.12300
H526        H  0.29763609  0.32054207  0.31617032     0.12900
C527        C  0.33161770  0.46492304  0.42104888    -0.13600
C528        C  0.30983563  0.43666504  0.39611895     0.08500
C529        C  0.27149682  0.42281067  0.39697133    -0.13600
C530        C  0.25545201  0.43461529  0.42360102    -0.13600
C531        C  0.27748737  0.46504343  0.44661272     0.08500
C532        C  0.31607777  0.47977355  0.44451905    -0.13600
H533        H  0.36049480  0.97620233  0.42113152     0.12500
H534        H  0.25379161  0.40403883  0.37611523     0.12500
H535        H  0.22579578  0.42057866  0.42508706     0.12500
H536        H  0.33504469  0.00340292  0.46090246     0.12500
C537        C  0.31145505  0.31911183  0.42853743    -0.13600
C538        C  0.27442869  0.30523847  0.43916902     0.08500
C539        C  0.25566720  0.32045479  0.42181803    -0.13600
C540        C  0.27246291  0.34715469  0.39483728    -0.13600
C541        C  0.31029595  0.36420607  0.38826104     0.08500
C542        C  0.32966972  0.34969282  0.40564311    -0.13600
H543        H  0.32726458  0.30760250  0.43931609     0.12500
H544        H  0.22887979  0.31390315  0.42964930     0.12500
H545        H  0.25563870  0.35447345  0.37938281     0.17000
H546        H  0.35884180  0.36143202  0.40088913     0.12500
C547        C  0.41591434  0.42419928  0.26191355    -0.13600
C548        C  0.37834662  0.40786959  0.27065228     0.08500
C549        C  0.35272158  0.37675948  0.25056649    -0.13600
C550        C  0.36426917  0.35957900  0.22573844    -0.13600
C551        C  0.40188970  0.37424101  0.21812434     0.08500
C552        C  0.42749788  0.40804252  0.23516580    -0.13600
H553        H  0.43628684  0.44843858  0.27671345     0.12500
H554        H  0.32357846  0.36390045  0.25633529     0.12500
H555        H  0.34347526  0.33381576  0.21333632     0.12500
H556        H  0.45652571  0.42116544  0.22889658     0.12500
C557        C  0.14648250  0.48859715  0.33121126    -0.16700
C558        C  0.17792558  0.99815245  0.31256096    -0.31900
H559        H  0.14075011  0.50939264  0.34175786     0.12300
H560        H  0.18331615  0.97711172  0.30211579     0.12900
C561        C  0.48958277  0.32803133  0.35377198    -0.16700
C562        C  0.02245910  0.33908746  0.33637830    -0.31900
H563        H  0.48535083  0.34888152  0.36673874     0.12300
H564        H  0.02597030  0.31898829  0.32085825     0.12900
C565        C  0.04103021  0.36252924  0.41812550    -0.13600
C566        C  0.07124307  0.36800717  0.39753620     0.08500
C567        C  0.08876152  0.34829310  0.40678605    -0.13600
C568        C  0.07402982  0.32133340  0.43428183    -0.13600
C569        C  0.03978957  0.31136159  0.45032803     0.08500
C570        C  0.02443007  0.33350214  0.44261669    -0.13600
H571        H  0.02827274  0.37880899  0.41287362     0.12500
H572        H  0.11292859  0.35288100  0.39208629     0.12500
H573        H  0.58864325  0.30750320  0.44253322     0.12500
H574        H  0.99859942  0.32766903  0.45456740     0.12500
C575        C  0.13662138  0.44076302  0.42534314    -0.13600
C576        C  0.14351688  0.43914000  0.38846822     0.08500
C577        C  0.18003574  0.45123838  0.37785715    -0.13600
C578        C  0.20930209  0.46841794  0.40264967    -0.13600
C579        C  0.20224014  0.46892813  0.43970743     0.08500
C580        C  0.16519948  0.45380503  0.45062693    -0.13600
H581        H  0.10915309  0.43224423  0.43473445     0.12500
H582        H  0.18613432  0.44796225  0.35020995     0.12500
H583        H  0.23829978  0.98324362  0.39301740     0.12500
H584        H  0.15841639  0.45356496  0.47895563     0.12500
C585        C  0.46162612  0.36365337  0.26352361    -0.13600
C586        C  0.46980609  0.36239255  0.22687710     0.08500
C587        C  0.00750754  0.37550467  0.21678849    -0.13600
C588        C  0.03492699  0.38653293  0.24281794    -0.13600
C589        C  0.02719613  0.38880633  0.27923824     0.08500
C590        C  0.48986707  0.37792915  0.28942719    -0.13600
H591        H  0.43360197  0.35361566  0.27217148     0.12500
H592        H  0.01478658  0.37513325  0.18871714     0.12500
H593        H  0.06237173  0.39373330  0.23443462     0.12500
H594        H  0.48337575  0.38092054  0.31708718     0.12500
C595        C  0.45718193  0.17526237  0.11724225    -0.13600
C596        C  0.43388059  0.13797431  0.10639520     0.08500
C597        C  0.42695105  0.13028672  0.06923455    -0.13600
C598        C  0.44332534  0.15925461  0.04390281    -0.13600
C599        C  0.46945848  0.19587259  0.05483607     0.08500
C600        C  0.47596210  0.20324636  0.09198279    -0.13600
H601        H  0.96518279  0.18397530  0.14569760     0.12500
H602        H  0.40973941  0.10201590  0.05970824     0.12500
H603        H  0.43623146  0.15280738  0.01566553     0.12500
H604        H  0.99752347  0.23158286  0.10089752     0.12500
C605        C  0.34409428  0.08403028  0.09582587    -0.13600
C606        C  0.35433400  0.06232202  0.11615817     0.08500
C607        C  0.33140731  0.02331434  0.11323101    -0.13600
C608        C  0.30060829  0.00673112  0.09046415    -0.13600
C609        C  0.29284934  0.02820605  0.06729384     0.08500
C610        C  0.31418719  0.06719078  0.07113842    -0.13600
H611        H  0.35955322  0.11394341  0.09831965     0.12500
H612        H  0.33785198  0.00506138  0.12783577     0.12500
H613        H  0.28734530  0.48627439  0.08022319     0.12500
H614        H  0.30870611  0.08461415  0.05394972     0.12500
C615        C  0.36806213  0.47138864  0.24351298    -0.13600
C616        C  0.38135801  0.48085603  0.27910929     0.08500
C617        C  0.40544665  0.01909148  0.28837606    -0.13600
C618        C  0.41356696  0.04649956  0.26253095    -0.13600
C619        C  0.40241313  0.03661880  0.22641466     0.08500
C620        C  0.37971964  0.49859247  0.21684004    -0.13600
H621        H  0.34812386  0.44296450  0.23630636     0.12500
H622        H  0.41723696  0.02766556  0.31512967     0.12500
H623        H  0.42953420  0.07535779  0.27056578     0.12500
H624        H  0.36978037  0.48986014  0.18946043     0.12500
C625        C  0.23319891  0.14581202  0.09561097    -0.13600
C626        C  0.19949988  0.13738687  0.11210635     0.08500
C627        C  0.18642392  0.16172550  0.10512727    -0.13600
C628        C  0.20532810  0.19213689  0.08250230    -0.13600
C629        C  0.23492859  0.19657349  0.06159897     0.08500
C630        C  0.24974366  0.17394993  0.06919803    -0.13600
H631        H  0.24607658  0.12992471  0.10201668     0.12500
H632        H  0.16075378  0.15704312  0.11641820     0.12500
H633        H  0.19453990  0.21038513  0.07858381     0.12500
H634        H  0.27344859  0.17752602  0.05432554     0.12500
C635        C  0.21142953  0.05425281  0.04658599    -0.13600
C636        C  0.22285653  0.02961374  0.05767297     0.08500
C637        C  0.22003937  0.02055016  0.09442515    -0.13600
C638        C  0.20587488  0.03539752  0.11920036    -0.13600
C639        C  0.19161741  0.05762136  0.10766014     0.08500
C640        C  0.19391782  0.06619199  0.07075700    -0.13600
H641        H  0.21479358  0.06318659  0.01878617     0.12500
H642        H  0.22803595  0.00133109  0.10397379     0.12500
H643        H  0.20487031  0.02833378  0.14747504     0.12500
H644        H  0.18237656  0.08222334  0.06055881     0.12500
C645        C  0.08335781  0.99919395  0.23123508    -0.13600
C646        C  0.12014224  0.01879451  0.21882841     0.08500
C647        C  0.14216783  0.00369839  0.22782434    -0.13600
C648        C  0.12958703  0.47374134  0.25098195    -0.13600
C649        C  0.09692497  0.46147236  0.27062614     0.08500
C650        C  0.07321839  0.47373176  0.25890684    -0.13600
H651        H  0.06249680  0.00314760  0.21884171     0.12500
H652        H  0.16933699  0.01486136  0.21615444     0.12500
H653        H  0.14595296  0.46096822  0.25496716     0.12500
H654        H  0.04619181  0.46264618  0.27080768     0.12500
C655        C  0.15669457  0.18184560  0.33588775    -0.16700
C656        C  0.16211360  0.15353509  0.34089022    -0.31900
H657        H  0.17981278  0.21015087  0.33442521     0.12300
H658        H  0.13868827  0.12541035  0.34270654     0.12900
C659        C  0.48862548  0.15332503  0.31884292    -0.16700
C660        C  0.02173354  0.18175534  0.31926065    -0.31900
H661        H  0.48500954  0.12592828  0.32229709     0.12300
H662        H  0.02556289  0.20887438  0.31407585     0.12900
C663        C  0.05401489  0.23657765  0.37910676    -0.13600
C664        C  0.06326688  0.20944063  0.38642025     0.08500
C665        C  0.05754383  0.19495734  0.42142230    -0.13600
C666        C  0.04336364  0.20757886  0.44834867    -0.13600
C667        C  0.03088165  0.23216294  0.44020508     0.08500
C668        C  0.03499063  0.24517399  0.40462930    -0.13600
H669        H  0.06044727  0.25038099  0.35327274     0.12500
H670        H  0.06423067  0.17396053  0.42804642     0.12500
H671        H  0.04129497  0.19719545  0.47550751     0.12500
H672        H  0.02429937  0.26263301  0.39660412     0.12500
C673        C  0.17557326  0.19961537  0.43590492    -0.13600
C674        C  0.19096334  0.23618903  0.44889918     0.08500
C675        C  0.17206660  0.25483905  0.44014132    -0.13600
C676        C  0.14561257  0.24161100  0.41201423    -0.13600
C677        C  0.13276957  0.20622098  0.39652555     0.08500
C678        C  0.14540253  0.18419409  0.41227761    -0.13600
H679        H  0.18651723  0.18254132  0.44467640     0.12500
H680        H  0.17789622  0.27978594  0.45462736     0.12500
H681        H  0.13529015  0.25898053  0.40262273     0.12500
H682        H  0.13352403  0.15543666  0.40426007     0.12500
C683        C  0.01458369  0.10162896  0.26338247    -0.13600
C684        C  0.03810204  0.14031876  0.26736571     0.08500
C685        C  0.03316768  0.16321909  0.24340866    -0.13600
C686        C  0.50477448  0.14883084  0.21838722    -0.13600
C687        C  0.48117809  0.10996697  0.21470014     0.08500
C688        C  0.48965076  0.08742246  0.23564690    -0.13600
H689        H  0.01463505  0.08286255  0.28306014     0.12500
H690        H  0.05017127  0.19310531  0.24596246     0.12500
H691        H  0.49983585  0.16778635  0.20311772     0.12500
H692        H  0.47419029  0.05759558  0.23234566     0.12500
C693        C  0.15403726  0.13991241  0.23716281    -0.13600
C694        C  0.13135785  0.10187106  0.22780680     0.08500
C695        C  0.09757333  0.08235696  0.24607841    -0.13600
C696        C  0.08752106  0.09940235  0.27272476    -0.13600
C697        C  0.10749833  0.13797194  0.27750064     0.08500
C698        C  0.14106185  0.15809965  0.25912013    -0.13600
H699        H  0.18141420  0.15646571  0.22600831     0.12500
H700        H  0.07746490  0.05451255  0.23924621     0.12500
H701        H  0.06393339  0.08226225  0.28932309     0.12500
H702        H  0.15810318  0.18783786  0.26297683     0.12500
C703        C  0.12024257  0.67737564  0.33516956     0.02000
C704        C  0.09674333  0.65793048  0.30543791     0.02000
C705        C  0.06368964  0.65849474  0.30056974     0.02000
C706        C  0.05526028  0.67894067  0.32594730     0.02000
C707        C  0.07739654  0.69541207  0.35759382     0.02000
C708        C  0.10983003  0.69373143  0.36279568     0.02000
C709        C  0.14242795  0.58748338  0.19717155     0.02000
C710        C  0.13613851  0.55065111  0.19180285     0.02000
C711        C  0.15042768  0.54376234  0.16001758    -0.18500
C712        C  0.17318744  0.57166485  0.13517303     0.02000
C713        C  0.17756445  0.60749979  0.13909411     0.02000
C714        C  0.16061793  0.61342800  0.16913224    -0.18500
H715        H  0.16311008  0.64025089  0.17153152     0.04000
H716        H  0.14529871  0.51590391  0.15552705     0.04000
C717        C  0.41217823  0.56506036  0.19648235     0.02000
C718        C  0.44830572  0.59590062  0.18973139     0.02000
C719        C  0.45331192  0.61628903  0.15808238    -0.18500
C720        C  0.42425058  0.61101645  0.13528588     0.02000
C721        C  0.38806745  0.58073927  0.14198181     0.02000
C722        C  0.38309680  0.55910582  0.17299800    -0.18500
H723        H  0.35550027  0.53685361  0.17926213     0.04000
H724        H  0.48105607  0.63789114  0.15123032     0.04000
C725        C  0.11692836  0.94907058  0.33114312     0.02000
C726        C  0.08960769  0.93651928  0.30349155     0.02000
C727        C  0.05725329  0.90120919  0.30712708     0.02000
C728        C  0.05366987  0.87832596  0.33696907     0.02000
C729        C  0.08104005  0.89121813  0.36454641     0.02000
C730        C  0.11376412  0.92634837  0.36102862     0.02000
C731        C  0.34788022  0.95728874  0.34006248     0.02000
C732        C  0.36573312  0.95244509  0.30954188     0.02000
C733        C  0.36533674  0.91864719  0.30560996     0.02000
C734        C  0.34846807  0.89116539  0.33266377     0.02000
C735        C  0.32827072  0.89488400  0.36190464     0.02000
C736        C  0.32744698  0.92843070  0.36527418     0.02000
C737        C  0.44086136  0.84652272  0.19806509     0.02000
C738        C  0.41319438  0.85574637  0.19229204     0.02000
C739        C  0.39096244  0.84110679  0.16114441    -0.18500
C740        C  0.39365864  0.81662095  0.13651628     0.02000
C741        C  0.42249182  0.80885737  0.14160829     0.02000
C742        C  0.44324909  0.82182300  0.17368939    -0.18500
H743        H  0.46335052  0.81363832  0.17899555     0.04000
H744        H  0.37045338  0.84876833  0.15603737     0.04000
C745        C  0.28641181  0.51022672  0.00341137     0.02000
C746        C  0.27387892  0.52478114  0.03094170     0.02000
C747        C  0.23843779  0.52041593  0.02761783     0.02000
C748        C  0.21562366  0.50002409  0.99758701     0.02000
C749        C  0.22236385  0.97660091  0.97215441     0.02000
C750        C  0.25514823  0.97552561  0.97687894     0.02000
C751        C  0.27965767  0.78454199  0.00166294     0.02000
C752        C  0.27546360  0.75991126  0.03009853     0.02000
C753        C  0.24280351  0.72479480  0.03186618     0.02000
C754        C  0.21631695  0.71384058  0.00381093     0.02000
C755        C  0.22133889  0.73789303  0.97458079     0.02000
C756        C  0.25409336  0.77312271  0.97252277     0.02000
C757        C  0.01284482  0.78949778  0.00651365     0.02000
C758        C  0.48852412  0.76098185  0.03024729     0.02000
C759        C  0.48644984  0.72624670  0.02659509     0.02000
C760        C  0.00707706  0.72038982  0.99768088     0.02000
C761        C  0.02570772  0.74784173  0.97085506     0.02000
C762        C  0.02901989  0.78304194  0.97544105     0.02000
C763        C  0.15743524  0.61339390  0.66652719     0.02000
C764        C  0.17797990  0.61032629  0.63704962     0.02000
C765        C  0.17918599  0.57699439  0.63289825     0.02000
C766        C  0.15958939  0.54794905  0.65836325     0.02000
C767        C  0.14165225  0.55232987  0.68899767     0.02000
C768        C  0.14156265  0.58572816  0.69362338     0.02000
C769        C  0.10521511  0.67637093  0.86708645     0.02000
C770        C  0.07653749  0.68408938  0.86056883     0.02000
C771        C  0.05484191  0.66817952  0.82937016    -0.18500
C772        C  0.05884102  0.64373613  0.80586118     0.02000
C773        C  0.08723499  0.63577031  0.81272838     0.02000
C774        C  0.10844490  0.65103980  0.84419434    -0.18500
H775        H  0.12922377  0.64401251  0.85039949     0.04000
H776        H  0.03429916  0.67541458  0.82284938     0.04000
C777        C  0.07635524  0.89658663  0.86492499     0.02000
C778        C  0.11293063  0.92562316  0.85686401     0.02000
C779        C  0.11796164  0.94638675  0.82531172    -0.18500
C780        C  0.08865219  0.94126376  0.80252322     0.02000
C781        C  0.05223117  0.91157664  0.81051835     0.02000
C782        C  0.04721326  0.89185657  0.84276227    -0.18500
H783        H  0.01944246  0.87082271  0.85029936     0.04000
H784        H  0.14584559  0.96726880  0.81811669     0.04000
C785        C  0.45608230  0.61259492  0.66231654     0.02000
C786        C  0.44986648  0.58799123  0.69149033     0.02000
C787        C  0.41588090  0.55414231  0.69370287     0.02000
C788        C  0.38934141  0.54442432  0.66580380     0.02000
C789        C  0.39435452  0.56965825  0.63767088     0.02000
C790        C  0.42870374  0.60377152  0.63519451     0.02000
C791        C  0.44623225  0.82763947  0.67632887     0.02000
C792        C  0.43645883  0.84595454  0.70284721     0.02000
C793        C  0.40268717  0.84519693  0.69888901     0.02000
C794        C  0.37873709  0.82510932  0.66957436     0.02000
C795        C  0.38976510  0.80947199  0.64172552     0.02000
C796        C  0.42403974  0.81089308  0.64487888     0.02000
C797        C  0.31254125  0.92216294  0.86279830     0.02000
C798        C  0.30514721  0.88508325  0.85792456     0.02000
C799        C  0.32019918  0.87779886  0.82728345    -0.18500
C800        C  0.34428680  0.90560250  0.80300960     0.02000
C801        C  0.35093759  0.94241332  0.80700450     0.02000
C802        C  0.33458517  0.94938300  0.83704844    -0.18500
H803        H  0.33971348  0.97721668  0.84104049     0.04000
H804        H  0.31444426  0.84964960  0.82331128     0.04000
C805        C  0.01515693  0.74410215  0.47014166     0.02000
C806        C  0.02138290  0.78039846  0.47681738     0.02000
C807        C  0.00471259  0.78563575  0.50746901    -0.18500
C808        C  0.47993476  0.75576604  0.53112093     0.02000
C809        C  0.47407803  0.71943872  0.52523136     0.02000
C810        C  0.99153937  0.71508788  0.49347610    -0.18500
H811        H  0.98556915  0.68714256  0.48768391     0.04000
H812        H  0.00892264  0.81303096  0.51250375     0.04000
C813        C  0.25824451  0.78034727  0.47286284     0.02000
C814        C  0.22078605  0.75133988  0.47796295     0.02000
C815        C  0.21234671  0.72908298  0.50897702    -0.18500
C816        C  0.23908085  0.73257235  0.53417644     0.02000
C817        C  0.27614707  0.76285380  0.53060152     0.02000
C818        C  0.28408533  0.78574454  0.50006027    -0.18500
H819        H  0.31200162  0.80811661  0.49648782     0.04000
H820        H  0.18408772  0.70674211  0.51251450     0.04000
C821        C  0.26297405  0.98343097  0.47332886     0.02000
C822        C  0.23315649  0.98995671  0.46781787     0.02000
C823        C  0.22697590  0.51123311  0.49226360    -0.18500
C824        C  0.24718829  0.52591296  0.52467849     0.02000
C825        C  0.27727985  0.51999428  0.53035418     0.02000
C826        C  0.28230001  0.49675458  0.50575723    -0.18500
H827        H  0.30341539  0.98987406  0.51223950     0.04000
H828        H  0.20552179  0.51733219  0.48624484     0.04000
O829        O  0.44813470  0.51291126  0.97336916    -0.88600
C830        C  0.02112632  0.55872851  0.05530643     0.87400
Mg831      Mg  0.40794094  0.96036917  0.97910961     1.58100
O832        O  0.05743383  0.54462846  0.97570692    -0.88300
O833        O  0.99484512  0.55272817  0.93831056    -0.75700
C834        C  0.99156141  0.86718761  0.01003228     0.92500
O835        O  0.43823476  0.49410654  0.05971401    -0.75500
O836        O  0.45989112  0.86869602  0.01275130    -0.83000
Mg837      Mg  0.45354007  0.54330097  0.02220540     1.58000
C838        C  0.12760568  0.50212660  0.98311868     0.92400
O839        O  0.46512289  0.59436176  0.99075452    -0.81300
H840        H  0.07364893  0.55686898  0.92420751    -0.06600
C841        C  0.03158295  0.96803573  0.05564680     0.87300
O842        O  0.44029440  0.94345095  0.93990401    -0.75800
O843        O  0.00825951  0.55692518  0.02480363    -0.88500
O844        O  0.12410529  0.52993096  0.99007640    -0.81300
C845        C  0.12148253  0.62814867  0.01860890     0.92500
C846        C  0.99326059  0.62433911  0.98375306     0.92400
Mg847      Mg  0.03969960  0.95226490  0.97681856     1.58000
O848        O  0.02265004  0.89669944  0.00526071    -0.81300
O849        O  0.05873844  0.00319697  0.94025690    -0.75500
O850        O  0.08977236  0.62418521  0.01582890    -0.81300
O851        O  0.39402631  0.52602868  0.01795845    -0.83100
O852        O  0.40266070  0.88127757  0.98182426    -0.81400
C853        C  0.06408503  0.53659171  0.94559533     0.86800
O854        O  0.48255965  0.94164062  0.97237928    -0.88500
O855        O  0.04358450  0.98222946  0.02577986    -0.88600
O856        O  0.49918891  0.94507605  0.05831198    -0.75700
Mg857      Mg  0.04163137  0.58564398  0.97932498     1.58000
O858        O  0.12630996  0.60068659  0.01893154    -0.83100
H859        H  0.44117382  0.51604588  0.92026960    -0.06800
O860        O  0.43764187  0.95817705  0.02485030    -0.88300
H861        H  0.42588754  0.94822676  0.07754749    -0.06600
H862        H  0.47736086  0.93091908  0.91913662    -0.06800
C863        C  0.43472832  0.96790752  0.05566183     0.86800
C864        C  0.45957645  0.52663838  0.94328369     0.87400
C865        C  0.46748636  0.93844379  0.94285181     0.87400
H866        H  0.04974405  0.97779190  0.07886812    -0.06800
O867        O  0.04756140  0.55289804  0.06026698    -0.75800
Mg868      Mg  0.45010732  0.91514540  0.01910818     1.58000
H869        H  0.00933234  0.56496406  0.07836223    -0.06800
C870        C  0.36612505  0.49353976  0.01534256     0.92400
O871        O  0.36335592  0.90042994  0.98887396    -0.83000
C872        C  0.37034335  0.87443545  0.98701767     0.92400
O873        O  0.02521865  0.62861665  0.98360429    -0.83000
Mg874      Mg  0.08363541  0.53994246  0.02277268     1.58200
O875        O  0.37088148  0.97700757  0.01046113    -0.81300
O876        O  0.09864791  0.96738600  0.98282740    -0.83000
O877        O  0.28221570  0.68034542  0.30107275    -0.88600
C878        C  0.35629823  0.72383345  0.38622889     0.87400
Mg879      Mg  0.24131256  0.62307174  0.30167762     1.58100
O880        O  0.39281426  0.70999888  0.30585985    -0.88300
O881        O  0.33006370  0.72057752  0.26992164    -0.75700
C882        C  0.32084768  0.52959764  0.33374872     0.92500
O883        O  0.26794507  0.65715109  0.38818476    -0.75500
O884        O  0.29052137  0.52842802  0.33427934    -0.83000
Mg885      Mg  0.28672063  0.70821964  0.35187895     1.58000
C886        C  0.45603926  0.65711582  0.31737603     0.92400
O887        O  0.30035140  0.76091405  0.32274142    -0.81300
H888        H  0.40958904  0.72240746  0.25451985    -0.06600
C889        C  0.36107583  0.62821776  0.38196015     0.87300
O890        O  0.27694398  0.61096834  0.26217280    -0.75800
O891        O  0.34320692  0.72214535  0.35593394    -0.88500
O892        O  0.45726656  0.68771647  0.32424405    -0.81300
C893        C  0.45775344  0.79123333  0.35105956     0.92500
C894        C  0.32945365  0.79226505  0.31981664     0.92400
Mg895      Mg  0.36991441  0.61606167  0.30284679     1.58000
O896        O  0.35141146  0.55990120  0.33023773    -0.81300
O897        O  0.39194569  0.66909496  0.26856278    -0.75500
O898        O  0.42648991  0.78837296  0.34754093    -0.81300
O899        O  0.22781498  0.69254575  0.34604022    -0.83100
O900        O  0.23769093  0.54503751  0.30006268    -0.81400
C901        C  0.39873806  0.70170063  0.27552944     0.86800
O902        O  0.31582264  0.60534649  0.29700276    -0.88500
O903        O  0.37377488  0.64454587  0.35308737    -0.88600
O904        O  0.32777213  0.60200286  0.38430596    -0.75700
Mg905      Mg  0.37725516  0.75175181  0.31103974     1.58000
O906        O  0.46171644  0.76309026  0.35107900    -0.83100
H907        H  0.27966597  0.68652026  0.24774628    -0.06800
O908        O  0.27293260  0.62162049  0.34800148    -0.88300
H909        H  0.25348604  0.60377840  0.39865457    -0.06600
H910        H  0.31575447  0.60012251  0.24306073    -0.06800
C911        C  0.26381035  0.62606003  0.37926674     0.86800
C912        C  0.29628673  0.69547248  0.27205226     0.87400
C913        C  0.30356569  0.60521413  0.26652692     0.87400
H914        H  0.37849390  0.63662560  0.40570664    -0.06800
O915        O  0.38217889  0.71713776  0.39075097    -0.75800
Mg916      Mg  0.28178531  0.57507079  0.34141810     1.58000
H917        H  0.34531342  0.73085152  0.40941996    -0.06800
C918        C  0.19988429  0.66021539  0.34225695     0.92400
O919        O  0.19775340  0.56259099  0.30837158    -0.83000
C920        C  0.20545826  0.53721925  0.30706268     0.92400
O921        O  0.36117360  0.79577310  0.31781298    -0.83000
Mg922      Mg  0.41687285  0.70204796  0.35354038     1.58200
O923        O  0.20266584  0.63194706  0.33674184    -0.81300
O924        O  0.42625157  0.62730808  0.31081950    -0.83000
O925        O  0.12605205  0.85889324  0.64842069    -0.88600
C926        C  0.20092121  0.89911176  0.73006937     0.87400
Mg927      Mg  0.08174173  0.80271125  0.65069451     1.58100
O928        O  0.22846063  0.87956158  0.64767254    -0.88300
O929        O  0.17136130  0.89714763  0.61367957    -0.75700
C930        C  0.16224427  0.70554842  0.68596285     0.92500
O931        O  0.11171046  0.83821676  0.73410005    -0.75500
O932        O  0.13070947  0.70256742  0.68807456    -0.83000
Mg933      Mg  0.13324370  0.88963930  0.69775095     1.58000
C934        C  0.29388856  0.83264737  0.65157356     0.92400
O935        O  0.15241537  0.94470332  0.66849727    -0.81300
H936        H  0.23938291  0.88932769  0.59483412    -0.06600
C937        C  0.20256331  0.80555123  0.72633746     0.87300
O938        O  0.11224935  0.78343825  0.61262073    -0.75800
O939        O  0.18711380  0.89814812  0.70028537    -0.88500
O940        O  0.29237148  0.86188759  0.65520750    -0.81300
C941        C  0.29838249  0.96161204  0.68711283     0.92500
C942        C  0.18346020  0.97360123  0.66215101     0.92400
Mg943      Mg  0.20593528  0.78724883  0.64810573     1.58000
O944        O  0.19152833  0.73624931  0.68050040    -0.81300
O945        O  0.22343025  0.83680051  0.61025966    -0.75500
O946        O  0.26690674  0.95707919  0.69198361    -0.81300
O947        O  0.07607820  0.87981197  0.69338542    -0.83100
O948        O  0.06326965  0.71256965  0.66450518    -0.81400
C949        C  0.23099672  0.86972501  0.61675215     0.86800
O950        O  0.14969995  0.77480319  0.64623785    -0.88500
O951        O  0.21412921  0.81901656  0.69618936    -0.88600
O952        O  0.16893382  0.78119836  0.73125261    -0.75700
Mg953      Mg  0.21981732  0.92476313  0.65375590     1.58000
O954        O  0.30295100  0.93416444  0.68441888    -0.83100
H955        H  0.11873817  0.86452452  0.59586569    -0.06800
O956        O  0.10661998  0.79448795  0.69802166    -0.88300
H957        H  0.09302826  0.78534820  0.75039177    -0.06600
H958        H  0.14481690  0.76469892  0.59294227    -0.06800
C959        C  0.10316485  0.80487215  0.72833178     0.86800
C960        C  0.13759065  0.87317848  0.61850660     0.87400
C961        C  0.13594852  0.77361109  0.61643533     0.87400
H962        H  0.22129329  0.81516673  0.74911959    -0.06800
O963        O  0.22651907  0.89171664  0.73317033    -0.75800
Mg964      Mg  0.11809630  0.74967633  0.69411131     1.58000
H965        H  0.19101735  0.90634336  0.75395930    -0.06800
C966        C  0.04580263  0.84972544  0.68866844     0.92400
O967        O  0.03495697  0.74441209  0.65514480    -0.83000
C968        C  0.03421850  0.71406715  0.65905557     0.92400
O969        O  0.21269550  0.97273707  0.65938058    -0.83000
Mg970      Mg  0.25739246  0.87513039  0.69209931     1.58200
O971        O  0.04440569  0.81926017  0.68130762    -0.81300
O972        O  0.26517553  0.80058603  0.65164780    -0.83000
C973        C  0.47967750  0.82490577  0.68158260    -0.16700
C974        C  0.01171233  0.85119977  0.68944468    -0.31900
H975        H  0.47696930  0.79788668  0.67774230     0.12300
H976        H  0.01462214  0.87843149  0.69119892     0.12900
C977        C  0.34028354  0.81756094  0.66934123    -0.16700
C978        C  0.33037244  0.83701306  0.64848272    -0.31900
H979        H  0.32059812  0.79696052  0.68789473     0.12300
H980        H  0.35109636  0.86019321  0.63292377     0.12900
C981        C  0.37945987  0.88825439  0.71451590    -0.13600
C982        C  0.39122918  0.86399186  0.72586676     0.08500
C983        C  0.38982409  0.85601847  0.76275041    -0.13600
C984        C  0.37720923  0.87206977  0.78763182    -0.13600
C985        C  0.36268996  0.89397122  0.77602865     0.08500
C986        C  0.36324946  0.90124713  0.73899431    -0.13600
H987        H  0.38155280  0.89604966  0.68642104     0.12500
H988        H  0.39790938  0.83689107  0.77236544     0.12500
H989        H  0.37727857  0.86596449  0.81605378     0.12500
H990        H  0.35138101  0.91706335  0.72901241     0.12500
C991        C  0.33637596  0.81046876  0.56101692    -0.13600
C992        C  0.30779028  0.77292813  0.55682601     0.08500
C993        C  0.31096631  0.74655088  0.57748001    -0.13600
C994        C  0.33727336  0.75787193  0.60531517    -0.13600
C995        C  0.36584353  0.79511988  0.60854831     0.08500
C996        C  0.36605971  0.82079774  0.58449276    -0.13600
H997        H  0.33563215  0.83272686  0.54729074     0.12500
H998        H  0.29246965  0.71719586  0.57340474     0.12500
H999        H  0.33497212  0.73747071  0.62455556     0.12500
H1000       H  0.38701948  0.84987657  0.58696330     0.12500
C1001       C  0.47468319  0.81722404  0.60344469    -0.13600
C1002       C  0.43793655  0.79628635  0.61531810     0.08500
C1003       C  0.41551876  0.76116413  0.59956742    -0.13600
C1004       C  0.42839922  0.74906229  0.57092407    -0.13600
C1005       C  0.46592669  0.76744838  0.56255998     0.08500
C1006       C  0.48911608  0.80185502  0.57966294    -0.13600
H1007       H  0.49267935  0.84519880  0.61333818     0.12500
H1008       H  0.38793122  0.74301907  0.60871916     0.12500
H1009       H  0.40853121  0.72683058  0.55415091     0.12500
H1010       H  0.01960691  0.81919003  0.57504874     0.12500
C1011       C  0.35747973  0.50590019  0.66519316    -0.16700
C1012       C  0.32916349  0.99928131  0.68442601    -0.31900
H1013       H  0.36007559  0.48469098  0.65072851     0.12300
H1014       H  0.32670826  0.02117221  0.69756178     0.12900
C1015       C  0.49165578  0.64842461  0.66074223    -0.16700
C1016       C  0.99809421  0.67976367  0.65929324    -0.31900
H1017       H  0.51671839  0.64754738  0.65841091     0.12300
H1018       H  0.97349170  0.68182986  0.66067635     0.12900
C1019       C  0.37712500  0.52704195  0.74865981    -0.13600
C1020       C  0.40533111  0.52973659  0.72657650     0.08500
C1021       C  0.41905862  0.50607943  0.73365667    -0.13600
C1022       C  0.40508723  0.98092001  0.76289055    -0.13600
C1023       C  0.37244128  0.97404760  0.78064491     0.08500
C1024       C  0.35993499  0.99881690  0.77349366    -0.13600
H1025       H  0.36711097  0.54597620  0.74496081     0.12500
H1026       H  0.44169556  0.50829842  0.71782646     0.12500
H1027       H  0.41769313  0.96479197  0.76935195     0.12500
H1028       H  0.33536137  0.99553232  0.78622337     0.12500
C1029       C  0.32796446  0.54936835  0.62136872    -0.13600
C1030       C  0.36405119  0.55957866  0.61053395     0.08500
C1031       C  0.37124325  0.56050437  0.57343639    -0.13600
C1032       C  0.34358701  0.55187644  0.54807807    -0.13600
C1033       C  0.30672663  0.53824476  0.55872610     0.08500
C1034       C  0.29925146  0.53724921  0.59588718    -0.13600
H1035       H  0.32176158  0.55011364  0.64961318     0.12500
H1036       H  0.39843621  0.56801261  0.56392304     0.12500
H1037       H  0.35067367  0.55361699  0.51966949     0.12500
H1038       H  0.27133214  0.52640501  0.60530579     0.12500
C1039       C  0.47068976  0.64427632  0.58503755    -0.13600
C1040       C  0.43740592  0.63046362  0.60422012     0.08500
C1041       C  0.41428820  0.64417845  0.59503679    -0.13600
C1042       C  0.42462955  0.67116328  0.56804498    -0.13600
C1043       C  0.46038060  0.68913180  0.55319180     0.08500
C1044       C  0.48286419  0.67442444  0.56172467    -0.13600
H1045       H  0.48853884  0.63324932  0.58989580     0.12500
H1046       H  0.38783062  0.63346081  0.60809746     0.12500
H1047       H  0.40375023  0.67608893  0.55810842     0.12500
H1048       H  0.50991181  0.68590538  0.54968545     0.12500
C1049       C  0.46921622  0.84152869  0.75737223    -0.13600
C1050       C  0.46114583  0.86357584  0.73539359     0.08500
C1051       C  0.97781542  0.89941312  0.74163025    -0.13600
C1052       C  0.00713274  0.91662518  0.76684205    -0.13600
C1053       C  0.01916450  0.89549488  0.78554565     0.08500
C1054       C  0.49940072  0.85769317  0.78076182    -0.13600
H1055       H  0.45414195  0.81164958  0.75390675     0.12500
H1056       H  0.97125223  0.91646695  0.72509855     0.12500
H1057       H  0.02128731  0.94642522  0.77047752     0.12500
H1058       H  0.50652704  0.83945285  0.79442034     0.12500
C1059       C  0.01494078  0.60727544  0.71342966    -0.13600
C1060       C  0.47790674  0.59939867  0.72108433     0.08500
C1061       C  0.46894811  0.60361799  0.75665939    -0.13600
C1062       C  0.49576750  0.61734637  0.78376265    -0.13600
C1063       C  0.03144585  0.62675857  0.77594542     0.08500
C1064       C  0.04174468  0.62490888  0.74020404    -0.13600
H1065       H  0.02319379  0.60285653  0.68700810     0.12500
H1066       H  0.44128577  0.59687667  0.76347334     0.12500
H1067       H  0.48744043  0.61902524  0.81112399     0.12500
H1068       H  0.07036529  0.63646297  0.73295185     0.12500
C1069       C  0.14850337  0.64351684  0.66713365    -0.16700
C1070       C  0.16646408  0.67317450  0.68899526    -0.31900
H1071       H  0.12831905  0.64199103  0.64795514     0.12300
H1072       H  0.18981136  0.67672797  0.70451072     0.12900
C1073       C  0.18653242  0.00973423  0.66001494    -0.16700
C1074       C  0.15847216  0.51244301  0.65387750    -0.31900
H1075       H  0.21341058  0.03441707  0.66432599     0.12300
H1076       H  0.13200331  0.48751892  0.64944104     0.12900
C1077       C  0.13997971  0.53276700  0.75330902    -0.13600
C1078       C  0.12597360  0.52335196  0.71803850     0.08500
C1079       C  0.09726304  0.98883884  0.71133961    -0.13600
C1080       C  0.08564844  0.96089086  0.73755026    -0.13600
C1081       C  0.09869612  0.96975813  0.77335902     0.08500
C1082       C  0.12579258  0.50657403  0.78078177    -0.13600
H1083       H  0.16197593  0.56061530  0.75975064     0.12500
H1084       H  0.08482923  0.98144603  0.68474302     0.12500
H1085       H  0.06681120  0.93247640  0.72956606     0.12500
H1086       H  0.13646809  0.51565496  0.80790045     0.12500
C1087       C  0.08900335  0.57332562  0.73671641    -0.13600
C1088       C  0.12664535  0.59315749  0.72763953     0.08500
C1089       C  0.15108965  0.62123292  0.75126681    -0.13600
C1090       C  0.13800805  0.63419888  0.77894620    -0.13600
C1091       C  0.10002833  0.61713795  0.78618563     0.08500
C1092       C  0.07603791  0.58429783  0.76682016    -0.13600
H1093       H  0.06967149  0.55011922  0.72008158     0.12500
H1094       H  0.18049213  0.63472443  0.74686189     0.12500
H1095       H  0.15783662  0.65873239  0.79376535     0.12500
H1096       H  0.04694873  0.56885251  0.77314416     0.12500
C1097       C  0.17690641  0.53936241  0.57843955    -0.13600
C1098       C  0.19816642  0.56981767  0.60139302     0.08500
C1099       C  0.23688683  0.58811076  0.59762784    -0.13600
C1100       C  0.25353177  0.57511067  0.57255919    -0.13600
C1101       C  0.23193428  0.54256932  0.55166128     0.08500
C1102       C  0.19326997  0.52540694  0.55519701    -0.13600
H1103       H  0.14929787  0.02452984  0.58286171     0.12500
H1104       H  0.25425997  0.61169002  0.61485681     0.12500
H1105       H  0.28320224  0.59020350  0.57001670     0.12500
H1106       H  0.17716870  0.00046131  0.54230340     0.12500
C1107       C  0.21868826  0.67868897  0.62262986    -0.13600
C1108       C  0.19666486  0.64163398  0.61051296     0.08500
C1109       C  0.19050040  0.63515359  0.57317452    -0.13600
C1110       C  0.20585645  0.66470298  0.54883384    -0.13600
C1111       C  0.22612599  0.70184266  0.56111362     0.08500
C1112       C  0.23140224  0.70845300  0.59853315    -0.13600
H1113       H  0.22540185  0.68473129  0.65099305     0.12500
H1114       H  0.17315614  0.60727704  0.56272894     0.12500
H1115       H  0.20096377  0.65853448  0.52016714     0.12500
H1116       H  0.24618442  0.73658191  0.60901557     0.12500
C1117       C  0.98898842  0.65651718  0.98084036    -0.16700
C1118       C  0.01230614  0.68817174  0.99795169    -0.31900
H1119       H  0.46514259  0.65406784  0.96700593     0.12300
H1120       H  0.03570267  0.69080902  0.01281654     0.12900
C1121       C  0.01689809  0.82638173  0.01204245    -0.16700
C1122       C  0.98805569  0.83074274  0.00878460    -0.31900
H1123       H  0.04340986  0.84983751  0.01971886     0.12300
H1124       H  0.45773728  0.80680051  0.00199540     0.12900
C1125       C  0.07090449  0.84919413  0.95434642    -0.13600
C1126       C  0.04523088  0.81174162  0.94623173     0.08500
C1127       C  0.03147609  0.80263578  0.91077646    -0.13600
C1128       C  0.04320349  0.83008705  0.88444212    -0.13600
C1129       C  0.06629146  0.86790143  0.89353688     0.08500
C1130       C  0.07806580  0.87710757  0.92955144    -0.13600
H1131       H  0.08430813  0.85715770  0.98044600     0.12500
H1132       H  0.51205797  0.77506413  0.90282435     0.12500
H1133       H  0.03316336  0.82178693  0.85702103     0.12500
H1134       H  0.09446271  0.90584302  0.93804645     0.12500
C1135       C  0.02735254  0.69089932  0.89197227    -0.13600
C1136       C  0.06522391  0.70509228  0.88593561     0.08500
C1137       C  0.09030544  0.73857380  0.90383337    -0.13600
C1138       C  0.07796843  0.75404637  0.93057850    -0.13600
C1139       C  0.04012449  0.73784867  0.93795396     0.08500
C1140       C  0.01514975  0.70797602  0.91623691    -0.13600
H1141       H  0.00674383  0.66563349  0.87869112     0.12500
H1142       H  0.11949648  0.75193947  0.89833929     0.12500
H1143       H  0.09792516  0.77781018  0.94621771     0.12500
H1144       H  0.48676953  0.69683982  0.92013422     0.12500
C1145       C  0.18475272  0.67507041  0.00346184    -0.16700
C1146       C  0.15311366  0.66585054  0.02037820    -0.31900
H1147       H  0.18791060  0.65415911  0.98907307     0.12300
H1148       H  0.14941156  0.68715682  0.03308511     0.12900
C1149       C  0.30870274  0.82415658  0.00406664    -0.16700
C1150       C  0.34175296  0.83560508  0.98976086    -0.31900
H1151       H  0.30155433  0.84400413  0.01438882     0.12300
H1152       H  0.34833260  0.81546282  0.97923601     0.12900
C1153       C  0.29767040  0.81121735  0.92246498    -0.13600
C1154       C  0.26360610  0.79812022  0.93982486     0.08500
C1155       C  0.24025067  0.80984273  0.92593833    -0.13600
C1156       C  0.25212810  0.83555216  0.89735738    -0.13600
C1157       C  0.28940446  0.85497401  0.88631946     0.08500
C1158       C  0.31146044  0.84096968  0.89842396    -0.13600
H1159       H  0.31444886  0.79934349  0.92866287     0.12500
H1160       H  0.21259858  0.79845973  0.93634852     0.12500
H1161       H  0.23157303  0.83856483  0.88329219     0.12500
H1162       H  0.33924476  0.85233072  0.88828699     0.12500
C1163       C  0.19962811  0.72223733  0.91030249    -0.13600
C1164       C  0.19201070  0.72550545  0.94653902     0.08500
C1165       C  0.15579024  0.71519287  0.95633370    -0.13600
C1166       C  0.12704326  0.69807224  0.93125267    -0.13600
C1167       C  0.13472019  0.69539375  0.89480016     0.08500
C1168       C  0.17158878  0.70869661  0.88455690    -0.13600
H1169       H  0.22723946  0.73002759  0.90194409     0.12500
H1170       H  0.14954528  0.71935006  0.98371526     0.12500
H1171       H  0.09900498  0.68717321  0.94034498     0.12500
H1172       H  0.17856389  0.70731940  0.85657897     0.12500
C1173       C  0.32386460  0.51619165  0.00717602    -0.16700
C1174       C  0.32909929  0.48817504  0.01515189    -0.31900
H1175       H  0.34707010  0.54429457  0.00435987     0.12300
H1176       H  0.34576364  0.03961241  0.02165327     0.12900
C1177       C  0.17636648  0.48954190  0.99729096    -0.16700
C1178       C  0.16494785  0.50899663  0.97854865    -0.31900
H1179       H  0.15296190  0.96249218  0.01668434     0.12300
H1180       H  0.18475731  0.53350060  0.96383623     0.12900
C1181       C  0.15153113  0.91272004  0.90132619    -0.13600
C1182       C  0.14588280  0.93791105  0.88154822     0.08500
C1183       C  0.17099916  0.97611738  0.88761328    -0.13600
C1184       C  0.19850483  0.98820825  0.91427601    -0.13600
C1185       C  0.19947571  0.96279697  0.93809011     0.08500
C1186       C  0.17459421  0.92482955  0.93184885    -0.13600
H1187       H  0.13522542  0.88326132  0.89578397     0.12500
H1188       H  0.16855381  0.99695432  0.87287413     0.12500
H1189       H  0.21931184  0.52310266  0.91499734     0.12500
H1190       H  0.17178302  0.90436939  0.95120889     0.12500
C1191       C  0.30615725  0.98403415  0.93490153    -0.13600
C1192       C  0.26979609  0.96178150  0.94740979     0.08500
C1193       C  0.24875454  0.92593493  0.93308330    -0.13600
C1194       C  0.26156980  0.91465907  0.90387482    -0.13600
C1195       C  0.29855248  0.93477119  0.89366924     0.08500
C1196       C  0.32101369  0.96984570  0.91004115    -0.13600
H1197       H  0.32989416  0.52351637  0.93511561     0.12500
H1198       H  0.22240763  0.90639859  0.94409397     0.12500
H1199       H  0.24186746  0.89140627  0.88829728     0.12500
H1200       H  0.34972106  0.98695753  0.90264310     0.12500
C1201       C  0.41553880  0.76039230  0.09367393    -0.13600
C1202       C  0.43720966  0.79351853  0.11348305     0.08500
C1203       C  0.47564238  0.81260601  0.10808227    -0.13600
C1204       C  0.49185482  0.79970920  0.08380645    -0.13600
C1205       C  0.47023132  0.76912212  0.06124274     0.08500
C1206       C  0.43178547  0.74894360  0.06694040    -0.13600
H1207       H  0.38614265  0.74394009  0.09817935     0.12500
H1208       H  0.99549814  0.83593767  0.12536600     0.12500
H1209       H  0.02368576  0.81363918  0.08319215     0.12500
H1210       H  0.41438511  0.72474363  0.05042838     0.12500
C1211       C  0.37026539  0.79608415  0.07204876    -0.13600
C1212       C  0.36353608  0.79849869  0.10888547     0.08500
C1213       C  0.32691247  0.78595304  0.11972556    -0.13600
C1214       C  0.29848886  0.77375762  0.09439282    -0.13600
C1215       C  0.30526892  0.77122572  0.05770324     0.08500
C1216       C  0.34104772  0.78054260  0.04720093    -0.13600
H1217       H  0.39797275  0.80652079  0.06225038     0.12500
H1218       H  0.32041100  0.78688622  0.14795157     0.12500
H1219       H  0.27128228  0.76667448  0.10346699     0.12500
H1220       H  0.34660298  0.77653871  0.01952242     0.12500
C1221       C  0.31975729  0.49435430  0.33531624    -0.16700
C1222       C  0.34811270  0.99233043  0.34415087    -0.31900
H1223       H  0.29423625  0.46917559  0.32802906     0.12300
H1224       H  0.37273115  0.01686658  0.35409170     0.12900
C1225       C  0.35328974  0.85856613  0.32975786    -0.16700
C1226       C  0.32528432  0.82494547  0.32085432    -0.31900
H1227       H  0.38086632  0.86314331  0.33311805     0.12300
H1228       H  0.29793628  0.82094029  0.31728856     0.12900
C1229       C  0.33089968  0.96422484  0.42153628    -0.13600
C1230       C  0.30884281  0.93649217  0.39635623     0.08500
C1231       C  0.27071484  0.92369095  0.39665393    -0.13600
C1232       C  0.25500431  0.93570513  0.42337614    -0.13600
C1233       C  0.27742960  0.96574139  0.44662855     0.08500
C1234       C  0.31587616  0.97967201  0.44477160    -0.13600
H1235       H  0.36129363  0.47760965  0.42040655     0.12500
H1236       H  0.25298088  0.90540340  0.37549962     0.12500
H1237       H  0.22537930  0.92214150  0.42477061     0.12500
H1238       H  0.33492389  0.50371909  0.46059744     0.12500
C1239       C  0.31014261  0.81852504  0.42896768    -0.13600
C1240       C  0.27361402  0.80578297  0.44050420     0.08500
C1241       C  0.25543020  0.82214532  0.42424406    -0.13600
C1242       C  0.27199911  0.84831731  0.39680069    -0.13600
C1243       C  0.30951208  0.86417812  0.38901422     0.08500
C1244       C  0.32850218  0.84893214  0.40588576    -0.13600
H1245       H  0.32553072  0.80636325  0.43929949     0.12500
H1246       H  0.22941650  0.81695666  0.43345477     0.12500
H1247       H  0.25527379  0.85623212  0.38205968     0.17000
H1248       H  0.35750503  0.86002272  0.40074773     0.12500
C1249       C  0.41652536  0.92548918  0.26336099    -0.13600
C1250       C  0.37890378  0.90889218  0.27201641     0.08500
C1251       C  0.35337974  0.87799723  0.25169452    -0.13600
C1252       C  0.36505018  0.86123620  0.22661321    -0.13600
C1253       C  0.40268671  0.87617674  0.21892571     0.08500
C1254       C  0.42825123  0.90975805  0.23630899    -0.13600
H1255       H  0.43678779  0.94961061  0.27838016     0.12500
H1256       H  0.32421098  0.86500103  0.25740581     0.12500
H1257       H  0.34431612  0.83560236  0.21395338     0.12500
H1258       H  0.45729138  0.92299347  0.23004100     0.12500
C1259       C  0.14679931  0.98832604  0.33046715    -0.16700
C1260       C  0.17788930  0.49864425  0.31372410    -0.31900
H1261       H  0.14110245  0.00922216  0.34078779     0.12300
H1262       H  0.18331752  0.47770789  0.30307367     0.12900
C1263       C  0.48980633  0.82880926  0.35397858    -0.16700
C1264       C  0.02303548  0.83884290  0.33734695    -0.31900
H1265       H  0.48578278  0.85001441  0.36642409     0.12300
H1266       H  0.02669555  0.81858262  0.32230408     0.12900
C1267       C  0.04188949  0.86303280  0.41872997    -0.13600
C1268       C  0.07228001  0.86872179  0.39830151     0.08500
C1269       C  0.09049320  0.84986274  0.40820409    -0.13600
C1270       C  0.07616125  0.82330351  0.43605424    -0.13600
C1271       C  0.04180384  0.81303189  0.45196362     0.08500
C1272       C  0.02586295  0.83453020  0.44382181    -0.13600
H1273       H  0.02864516  0.87875959  0.41301047     0.12500
H1274       H  0.11482682  0.85469189  0.39366650     0.12500
H1275       H  0.58762912  0.80706688  0.44298481     0.12500
H1276       H  0.99995407  0.82844340  0.45578142     0.12500
C1277       C  0.13749304  0.94221659  0.42545238    -0.13600
C1278       C  0.14435375  0.94015059  0.38862534     0.08500
C1279       C  0.18102874  0.95285706  0.37806414    -0.13600
C1280       C  0.21029899  0.97072117  0.40279194    -0.13600
C1281       C  0.20323139  0.97125640  0.43984907     0.08500
C1282       C  0.16617111  0.95600394  0.45073525    -0.13600
H1283       H  0.10994950  0.93339613  0.43481986     0.12500
H1284       H  0.18724308  0.94941087  0.35051441     0.12500
H1285       H  0.23727803  0.48077965  0.39285674     0.12500
H1286       H  0.15938486  0.95591279  0.47903929     0.12500
C1287       C  0.46215899  0.86468169  0.26328954    -0.13600
C1288       C  0.47003143  0.86304254  0.22661476     0.08500
C1289       C  0.00739263  0.87469382  0.21713578    -0.13600
C1290       C  0.03482963  0.88551271  0.24316046    -0.13600
C1291       C  0.02725238  0.88794982  0.27960631     0.08500
C1292       C  0.49048307  0.87863776  0.28909931    -0.13600
H1293       H  0.43428357  0.85519146  0.27206525     0.12500
H1294       H  0.01463448  0.87425457  0.18906464     0.12500
H1295       H  0.06220949  0.89252375  0.23473545     0.12500
H1296       H  0.48420776  0.88195640  0.31674312     0.12500
C1297       C  0.45809506  0.67740418  0.11707885    -0.13600
C1298       C  0.43455668  0.63997300  0.10701999     0.08500
C1299       C  0.42588018  0.63143822  0.07021328    -0.13600
C1300       C  0.44026320  0.65984895  0.04443819    -0.13600
C1301       C  0.46662539  0.69661316  0.05435612     0.08500
C1302       C  0.47516018  0.70490098  0.09110886    -0.13600
H1303       H  0.96818748  0.68414438  0.14491181     0.12500
H1304       H  0.40852075  0.60296246  0.06129243     0.12500
H1305       H  0.43157331  0.65286979  0.01660517     0.12500
H1306       H  0.99912526  0.73138677  0.09943942     0.12500
C1307       C  0.34659531  0.59198402  0.09885525    -0.13600
C1308       C  0.35549211  0.56781226  0.11663832     0.08500
C1309       C  0.33252623  0.52944601  0.10998735    -0.13600
C1310       C  0.30335123  0.51588641  0.08539344    -0.13600
C1311       C  0.29720941  0.54009706  0.06463375     0.08500
C1312       C  0.31844512  0.57836947  0.07232101    -0.13600
H1313       H  0.36224441  0.62149735  0.10435954     0.12500
H1314       H  0.33794807  0.50956911  0.12275994     0.12500
H1315       H  0.28463247  0.97673365  0.08854858     0.12500
H1316       H  0.31424276  0.59774320  0.05688991     0.12500
C1317       C  0.36816207  0.97156502  0.24460586    -0.13600
C1318       C  0.38103735  0.98127076  0.28028498     0.08500
C1319       C  0.40634102  0.51855075  0.28711233    -0.13600
C1320       C  0.41446534  0.54614375  0.26146490    -0.13600
C1321       C  0.40273004  0.53658251  0.22542358     0.08500
C1322       C  0.37989939  0.99859471  0.21784937    -0.13600
H1323       H  0.34849876  0.94307493  0.23736741     0.12500
H1324       H  0.41854385  0.52692702  0.31372837     0.12500
H1325       H  0.43059160  0.57492456  0.26974481     0.12500
H1326       H  0.37036877  0.98971480  0.19038575     0.12500
C1327       C  0.23250111  0.64967268  0.09744864    -0.13600
C1328       C  0.19828541  0.63989815  0.11353757     0.08500
C1329       C  0.18410399  0.66334796  0.10682615    -0.13600
C1330       C  0.20261339  0.69438030  0.08489454    -0.13600
C1331       C  0.23299533  0.70028176  0.06441770     0.08500
C1332       C  0.24877751  0.67848529  0.07174054    -0.13600
H1333       H  0.24596943  0.63428243  0.10358120     0.12500
H1334       H  0.15791190  0.65746287  0.11782192     0.12500
H1335       H  0.19085189  0.71177783  0.08093266     0.12500
H1336       H  0.27294787  0.68310655  0.05702691     0.12500
C1337       C  0.21117605  0.55960542  0.04545436    -0.13600
C1338       C  0.22448616  0.53624993  0.05554721     0.08500
C1339       C  0.22243196  0.52647567  0.09199690    -0.13600
C1340       C  0.20765084  0.53983546  0.11765533    -0.13600
C1341       C  0.19218953  0.56130800  0.10730307     0.08500
C1342       C  0.19344341  0.57033334  0.07061738    -0.13600
H1343       H  0.21356388  0.56872108  0.01778473     0.12500
H1344       H  0.23176752  0.50804653  0.10065515     0.12500
H1345       H  0.20739585  0.53242593  0.14570963     0.12500
H1346       H  0.18094178  0.58581175  0.06137377     0.12500
C1347       C  0.08420461  0.49994419  0.23079210    -0.13600
C1348       C  0.12123103  0.51975141  0.21919934     0.08500
C1349       C  0.14307790  0.50452614  0.22836111    -0.13600
C1350       C  0.12900973  0.97299891  0.25050674    -0.13600
C1351       C  0.09662077  0.96076416  0.27058464     0.08500
C1352       C  0.07280254  0.97306647  0.25939163    -0.13600
H1353       H  0.06382383  0.50470916  0.21843303     0.12500
H1354       H  0.17040058  0.51577242  0.21704156     0.12500
H1355       H  0.14546993  0.96028105  0.25419895     0.12500
H1356       H  0.04590151  0.96189981  0.27160441     0.12500
C1357       C  0.15768699  0.68306908  0.33667672    -0.16700
C1358       C  0.16296611  0.65472837  0.34228137    -0.31900
H1359       H  0.18088335  0.71131528  0.33503598     0.12300
H1360       H  0.13947081  0.62667193  0.34431104     0.12900
C1361       C  0.48928194  0.65446339  0.31949975    -0.16700
C1362       C  0.02227170  0.68232314  0.31991923    -0.31900
H1363       H  0.48569921  0.62702549  0.32247345     0.12300
H1364       H  0.02576701  0.70943683  0.31566374     0.12900
C1365       C  0.05541481  0.73812911  0.37961392    -0.13600
C1366       C  0.06426476  0.71067744  0.38674004     0.08500
C1367       C  0.05905011  0.69644534  0.42180829    -0.13600
C1368       C  0.04583316  0.70967587  0.44901631    -0.13600
C1369       C  0.03344678  0.73435957  0.44108373     0.08500
C1370       C  0.03717429  0.74729409  0.40551642    -0.13600
H1371       H  0.06158804  0.75177019  0.35370034     0.12500
H1372       H  0.06552560  0.67526655  0.42829281     0.12500
H1373       H  0.04414889  0.69947386  0.47619970     0.12500
H1374       H  0.02660164  0.76491758  0.39772302     0.12500
C1375       C  0.17555561  0.70095373  0.43697356    -0.13600
C1376       C  0.19066920  0.73747924  0.44994040     0.08500
C1377       C  0.17214273  0.75630883  0.44057928    -0.13600
C1378       C  0.14624376  0.74318871  0.41205449    -0.13600
C1379       C  0.13352129  0.70774670  0.39681382     0.08500
C1380       C  0.14576966  0.68560306  0.41297661    -0.13600
H1381       H  0.18634502  0.68385850  0.44611585     0.12500
H1382       H  0.17754149  0.78107902  0.45509950     0.12500
H1383       H  0.13610394  0.76058629  0.40228063     0.12500
H1384       H  0.13387341  0.65681439  0.40507381     0.12500
C1385       C  0.01708169  0.60249529  0.26263184    -0.13600
C1386       C  0.03929058  0.64126068  0.26761358     0.08500
C1387       C  0.03350484  0.66395521  0.24414616    -0.13600
C1388       C  0.50362958  0.65001319  0.21990581    -0.13600
C1389       C  0.48114384  0.61114730  0.21510737     0.08500
C1390       C  0.49080490  0.58873085  0.23468851    -0.13600
H1391       H  0.01809221  0.58368007  0.28156195     0.12500
H1392       H  0.04969546  0.69384976  0.24719749     0.12500
H1393       H  0.49775712  0.66882462  0.20557346     0.12500
H1394       H  0.47604245  0.55899991  0.23050452     0.12500
C1395       C  0.15491319  0.64133610  0.23830341    -0.13600
C1396       C  0.13281647  0.60293420  0.23004274     0.08500
C1397       C  0.10014533  0.58298912  0.25006436    -0.13600
C1398       C  0.08990225  0.60040463  0.27606630    -0.13600
C1399       C  0.10856682  0.63909523  0.27881175     0.08500
C1400       C  0.14158940  0.65946377  0.25974627    -0.13600
H1401       H  0.18192087  0.65819714  0.22644749     0.12500
H1402       H  0.08103133  0.55452469  0.24547116     0.12500
H1403       H  0.06709555  0.58349477  0.29372409     0.12500
H1404       H  0.15794699  0.68935725  0.26273186     0.12500
C1405       C  0.62062804  0.17833646  0.33449766     0.02000
C1406       C  0.59718596  0.15880498  0.30469588     0.02000
C1407       C  0.56401907  0.15925181  0.29993194     0.02000
C1408       C  0.55550092  0.17965599  0.32523730     0.02000
C1409       C  0.57744370  0.19601173  0.35701145     0.02000
C1410       C  0.61001208  0.19452811  0.36221591     0.02000
C1411       C  0.64154267  0.08704530  0.19629632     0.02000
C1412       C  0.63447688  0.04985733  0.19146412     0.02000
C1413       C  0.64802993  0.04219980  0.15963287    -0.18500
C1414       C  0.67102534  0.06965248  0.13452226     0.02000
C1415       C  0.67682091  0.10610071  0.13817929     0.02000
C1416       C  0.66038651  0.11283903  0.16820676    -0.18500
H1417       H  0.66392421  0.14010753  0.17070581     0.04000
H1418       H  0.64238176  0.01411515  0.15542829     0.04000
C1419       C  0.91064161  0.06442584  0.19654589     0.02000
C1420       C  0.94700161  0.09467659  0.18958018     0.02000
C1421       C  0.95220412  0.11488707  0.15776762    -0.18500
C1422       C  0.92321908  0.11011114  0.13505491     0.02000
C1423       C  0.88683854  0.08010306  0.14180795     0.02000
C1424       C  0.88165472  0.05870408  0.17307093    -0.18500
H1425       H  0.85398520  0.03665521  0.17944936     0.04000
H1426       H  0.98007976  0.13596579  0.15067783     0.04000
C1427       C  0.61536682  0.44860628  0.33179549     0.02000
C1428       C  0.58814123  0.43633094  0.30405421     0.02000
C1429       C  0.55584629  0.40093820  0.30738908     0.02000
C1430       C  0.55227620  0.37777886  0.33694408     0.02000
C1431       C  0.57961429  0.39037008  0.36447856     0.02000
C1432       C  0.61229254  0.42548623  0.36127683     0.02000
C1433       C  0.84813346  0.45695111  0.33871748     0.02000
C1434       C  0.86614920  0.45203156  0.30831351     0.02000
C1435       C  0.86586229  0.41828171  0.30446011     0.02000
C1436       C  0.84897787  0.39083703  0.33151133     0.02000
C1437       C  0.82878358  0.39461804  0.36065145     0.02000
C1438       C  0.82784431  0.42810204  0.36405695     0.02000
C1439       C  0.94179195  0.34628907  0.19828497     0.02000
C1440       C  0.91437479  0.35561500  0.19160115     0.02000
C1441       C  0.89265014  0.34074851  0.16018880    -0.18500
C1442       C  0.89600990  0.31627150  0.13609831     0.02000
C1443       C  0.92451677  0.30832505  0.14229640     0.02000
C1444       C  0.94445724  0.32122107  0.17474324    -0.18500
H1445       H  0.96443298  0.31305241  0.18084278     0.04000
H1446       H  0.87208317  0.34817530  0.15442336     0.04000
C1447       C  0.78484059  0.00874301  0.00357444     0.02000
C1448       C  0.77164113  0.02239119  0.03135416     0.02000
C1449       C  0.73570149  0.01694877  0.02808235     0.02000
C1450       C  0.71321900  0.99657012  0.99783187     0.02000
C1451       C  0.72746443  0.48527357  0.96987437     0.02000
C1452       C  0.76300409  0.48965659  0.97305832     0.02000
C1453       C  0.78449941  0.28202443  0.99911419     0.02000
C1454       C  0.77984791  0.25743508  0.02783404     0.02000
C1455       C  0.74692260  0.22253907  0.02968978     0.02000
C1456       C  0.72090937  0.21188592  0.00130018     0.02000
C1457       C  0.72553122  0.23637212  0.97266643     0.02000
C1458       C  0.75820185  0.27152526  0.97071322     0.02000
C1459       C  0.51514084  0.29027154  0.00722417     0.02000
C1460       C  0.99236600  0.26170584  0.03214613     0.02000
C1461       C  0.98910268  0.22654882  0.02761763     0.02000
C1462       C  0.51065684  0.22178459  0.99934259     0.02000
C1463       C  0.52918732  0.24916883  0.97235162     0.02000
C1464       C  0.53181665  0.28405502  0.97647441     0.02000
C1465       C  0.65723977  0.11332326  0.66585868     0.02000
C1466       C  0.67761111  0.11037965  0.63610151     0.02000
C1467       C  0.67879799  0.07702573  0.63158320     0.02000
C1468       C  0.65917286  0.04772869  0.65684208     0.02000
C1469       C  0.64149166  0.05204010  0.68776716     0.02000
C1470       C  0.64150965  0.08547280  0.69280795     0.02000
C1471       C  0.60837017  0.17844747  0.86635741     0.02000
C1472       C  0.58015309  0.18691563  0.86013756     0.02000
C1473       C  0.55842883  0.17155552  0.82878867    -0.18500
C1474       C  0.56162158  0.14661093  0.80521448     0.02000
C1475       C  0.58948198  0.13780406  0.81194186     0.02000
C1476       C  0.61091764  0.15281131  0.84331835    -0.18500
H1477       H  0.63128678  0.14520077  0.84945654     0.04000
H1478       H  0.53830312  0.17937074  0.82233307     0.04000
C1479       C  0.57852233  0.39688494  0.86500047     0.02000
C1480       C  0.61477027  0.42674565  0.85703476     0.02000
C1481       C  0.61919330  0.44694207  0.82521477    -0.18500
C1482       C  0.58962271  0.44121278  0.80253622     0.02000
C1483       C  0.55349369  0.41093399  0.81042680     0.02000
C1484       C  0.54906711  0.39110835  0.84252738    -0.18500
H1485       H  0.52151014  0.36950775  0.84995955     0.04000
H1486       H  0.64688655  0.46806339  0.81773750     0.04000
C1487       C  0.95699358  0.11257673  0.66132294     0.02000
C1488       C  0.95057652  0.08779690  0.69042497     0.02000
C1489       C  0.91680151  0.05364359  0.69220378     0.02000
C1490       C  0.89064428  0.04390577  0.66393773     0.02000
C1491       C  0.89565375  0.06937275  0.63604869     0.02000
C1492       C  0.92982684  0.10364053  0.63399742     0.02000
C1493       C  0.94589228  0.32688151  0.67669925     0.02000
C1494       C  0.93568206  0.34446234  0.70373757     0.02000
C1495       C  0.90165121  0.34324620  0.69999008     0.02000
C1496       C  0.87781526  0.32312197  0.67058946     0.02000
C1497       C  0.88924158  0.30833040  0.64224002     0.02000
C1498       C  0.92385789  0.31035264  0.64500087     0.02000
C1499       C  0.81230840  0.42326316  0.86295508     0.02000
C1500       C  0.80447771  0.38579638  0.85863352     0.02000
C1501       C  0.81792985  0.37738658  0.82729154    -0.18500
C1502       C  0.84179601  0.40437509  0.80232226     0.02000
C1503       C  0.84841777  0.44120371  0.80533811     0.02000
C1504       C  0.83254871  0.44902871  0.83525222    -0.18500
H1505       H  0.83721148  0.47678376  0.83769767     0.04000
H1506       H  0.81170144  0.34904110  0.82361095     0.04000
C1507       C  0.51352301  0.24290209  0.46980479     0.02000
C1508       C  0.51964739  0.27920133  0.47622507     0.02000
C1509       C  0.50309593  0.28465570  0.50681195    -0.18500
C1510       C  0.98130226  0.25650387  0.53101091     0.02000
C1511       C  0.97512334  0.22005558  0.52504086     0.02000
C1512       C  0.49028650  0.21412756  0.49357530    -0.18500
H1513       H  0.48446893  0.18619367  0.48804820     0.04000
H1514       H  0.50729567  0.31207211  0.51167598     0.04000
C1515       C  0.75842569  0.28139755  0.47273934     0.02000
C1516       C  0.72091794  0.25225982  0.47756652     0.02000
C1517       C  0.71230154  0.22993897  0.50855365    -0.18500
C1518       C  0.73885672  0.23334053  0.53392892     0.02000
C1519       C  0.77592388  0.26376664  0.53077519     0.02000
C1520       C  0.78395124  0.28700433  0.50044244    -0.18500
H1521       H  0.81174187  0.30969892  0.49731672     0.04000
H1522       H  0.68403611  0.20753686  0.51189473     0.04000
C1523       C  0.76218319  0.48117342  0.47300796     0.02000
C1524       C  0.73175057  0.48683379  0.46799512     0.02000
C1525       C  0.72761074  0.01178847  0.49154510    -0.18500
C1526       C  0.74773764  0.02632444  0.52403133     0.02000
C1527       C  0.77762266  0.02007569  0.52983240     0.02000
C1528       C  0.78212356  0.99626144  0.50555943    -0.18500
H1529       H  0.80331007  0.48845036  0.51134667     0.04000
H1530       H  0.70644077  0.01824459  0.48532666     0.04000
O1531       O  0.94891360  0.01318947  0.97218267    -0.88600
C1532       C  0.52896184  0.06277376  0.05397945     0.87400
Mg1533     Mg  0.90835538  0.45560331  0.97250988     1.58100
O1534       O  0.55922525  0.04457529  0.97300284    -0.88300
O1535       O  0.49615626  0.05375887  0.93887372    -0.75700
C1536       C  0.49259269  0.36702488  0.00763534     0.92500
O1537       O  0.93733181  0.99574421  0.05896833    -0.75500
O1538       O  0.96275303  0.36693312  0.00988057    -0.83000
Mg1539     Mg  0.95346980  0.04421343  0.02023052     1.58000
C1540       C  0.62533951  0.99776939  0.97882753     0.92400
O1541       O  0.96570334  0.09428922  0.98672774    -0.81300
H1542       H  0.57257247  0.05447722  0.92062549    -0.06600
C1543       C  0.53224886  0.46753516  0.05348026     0.87300
O1544       O  0.94528069  0.44348453  0.93476747    -0.75800
O1545       O  0.51499161  0.05997643  0.02389546    -0.88500
O1546       O  0.62338079  0.02664249  0.98437378    -0.81300
C1547       C  0.62651929  0.12717331  0.01473495     0.92500
C1548       C  0.50030795  0.12788231  0.98295102     0.92400
Mg1549     Mg  0.54008227  0.45232566  0.97467167     1.58000
O1550       O  0.52354458  0.39678068  0.00308533    -0.81300
O1551       O  0.55830498  0.50336569  0.93833803    -0.75500
O1552       O  0.59548276  0.12454776  0.01139559    -0.81300
O1553       O  0.89403020  0.02738244  0.01508520    -0.83100
O1554       O  0.90731287  0.37816310  0.97481755    -0.81400
C1555       C  0.56338719  0.03491076  0.94263495     0.86800
O1556       O  0.98543468  0.44022004  0.96985521    -0.88500
O1557       O  0.54386113  0.48202138  0.02364014    -0.88600
O1558       O  0.99793211  0.44122201  0.05729513    -0.75700
Mg1559     Mg  0.54576121  0.08698958  0.97711834     1.58000
O1560       O  0.63047953  0.09917895  0.01422575    -0.83100
H1561       H  0.94378839  0.01581989  0.91863568    -0.06800
O1562       O  0.94041093  0.45690770  0.01973870    -0.88300
H1563       H  0.92046556  0.43983910  0.07041996    -0.06600
H1564       H  0.98468685  0.43331729  0.91611410    -0.06800
C1565       C  0.93056461  0.46164955  0.05052898     0.86800
C1566       C  0.96140341  0.02663348  0.94219336     0.87400
C1567       C  0.97252145  0.43873993  0.93939147     0.87400
H1568       H  0.55061451  0.47729136  0.07654632    -0.06800
O1569       O  0.55450838  0.05562966  0.05848398    -0.75800
Mg1570     Mg  0.95178525  0.41175364  0.01518970     1.58000
H1571       H  0.51876859  0.07083480  0.07706685    -0.06800
C1572       C  0.86632811  0.99467712  0.01367494     0.92400
O1573       O  0.86649680  0.39516105  0.98039410    -0.83000
C1574       C  0.87465015  0.37008681  0.97983126     0.92400
O1575       O  0.53219095  0.13209788  0.98265550    -0.83000
Mg1576     Mg  0.58642902  0.03945112  0.01916418     1.58200
O1577       O  0.86804468  0.46473225  0.00522741    -0.81300
O1578       O  0.59946027  0.46804083  0.98066528    -0.83000
O1579       O  0.78150973  0.17958897  0.30098778    -0.88600
C1580       C  0.85715122  0.22498101  0.38454519     0.87400
Mg1581     Mg  0.74023798  0.12259766  0.30307214     1.58100
O1582       O  0.89240967  0.20918452  0.30411851    -0.88300
O1583       O  0.82882469  0.21885322  0.26864648    -0.75700
C1584       C  0.81897927  0.02859719  0.33452086     0.92500
O1585       O  0.76902058  0.15874257  0.38845892    -0.75500
O1586       O  0.78879733  0.02771726  0.33521477    -0.83000
Mg1587     Mg  0.78714723  0.20890990  0.35091673     1.58000
C1588       C  0.95469646  0.15539906  0.31670043     0.92400
O1589       O  0.80038674  0.26061127  0.32006798    -0.81300
H1590       H  0.90822440  0.22013182  0.25239340    -0.06600
C1591       C  0.86078135  0.12835928  0.38164277     0.87300
O1592       O  0.77470356  0.10939729  0.26299176    -0.75800
O1593       O  0.84367762  0.22268684  0.35433972    -0.88500
O1594       O  0.95638092  0.18631039  0.32305002    -0.81300
C1595       C  0.95832488  0.29115321  0.34880281     0.92500
C1596       C  0.82955550  0.29194427  0.31745513     0.92400
Mg1597     Mg  0.86826098  0.11468078  0.30282205     1.58000
O1598       O  0.84966408  0.05882148  0.33116136    -0.81300
O1599       O  0.89018002  0.16704815  0.26758610    -0.75500
O1600       O  0.92745110  0.28871997  0.34339142    -0.81300
O1601       O  0.72818723  0.19341019  0.34550439    -0.83100
O1602       O  0.73626305  0.04472680  0.30161397    -0.81400
C1603       C  0.89756812  0.19996634  0.27389701     0.86800
O1604       O  0.81420143  0.10430821  0.29736373    -0.88500
O1605       O  0.87297739  0.14428942  0.35249623    -0.88600
O1606       O  0.82754474  0.10211798  0.38457615    -0.75700
Mg1607     Mg  0.87699839  0.25107271  0.30861743     1.58000
O1608       O  0.96197752  0.26280565  0.34947850    -0.83100
H1609       H  0.77800697  0.18430497  0.24754272    -0.06800
O1610       O  0.77275742  0.12191909  0.34887077    -0.88300
H1611       H  0.75472407  0.10565270  0.40020663    -0.06600
H1612       H  0.81300010  0.09797728  0.24348342    -0.06800
C1613       C  0.76456788  0.12735187  0.38021411     0.86800
C1614       C  0.79507267  0.19387645  0.27154210     0.87400
C1615       C  0.80136411  0.10363521  0.26704521     0.87400
H1616       H  0.87860912  0.13708144  0.40509722    -0.06800
O1617       O  0.88279747  0.21797695  0.38913920    -0.75800
Mg1618     Mg  0.78084881  0.07489380  0.34241417     1.58000
H1619       H  0.84664883  0.23272836  0.40761097    -0.06800
C1620       C  0.70014966  0.16100817  0.34285435     0.92400
O1621       O  0.69653460  0.06241801  0.31078816    -0.83000
C1622       C  0.70410071  0.03698300  0.30873806     0.92400
O1623       O  0.86120130  0.29531234  0.31523968    -0.83000
Mg1624     Mg  0.91661644  0.20171581  0.35209874     1.58200
O1625       O  0.70288301  0.13251012  0.33917722    -0.81300
O1626       O  0.92464098  0.12570039  0.31058590    -0.83000
O1627       O  0.62533436  0.35761882  0.64657300    -0.88600
C1628       C  0.70128295  0.40032248  0.72700080     0.87400
Mg1629     Mg  0.58129150  0.30176816  0.65009217     1.58100
O1630       O  0.72801699  0.37788343  0.64538098    -0.88300
O1631       O  0.67016127  0.39419197  0.61051221    -0.75700
C1632       C  0.66190400  0.20531155  0.68752819     0.92500
O1633       O  0.61227316  0.33898300  0.73283711    -0.75500
O1634       O  0.63022243  0.20206700  0.68834038    -0.83000
Mg1635     Mg  0.63319150  0.38941128  0.69526386     1.58000
C1636       C  0.79310199  0.33073187  0.65248167     0.92400
O1637       O  0.65180372  0.44367181  0.66512383    -0.81300
H1638       H  0.73902644  0.38599405  0.59239259    -0.06600
C1639       C  0.70218477  0.30633755  0.72659940     0.87300
O1640       O  0.61168971  0.28176025  0.61264394    -0.75800
O1641       O  0.68697976  0.39788221  0.69716678    -0.88500
O1642       O  0.79177408  0.36016392  0.65496741    -0.81300
C1643       C  0.79800915  0.46106835  0.68323878     0.92500
C1644       C  0.68285802  0.47230276  0.65827655     0.92400
Mg1645     Mg  0.70538980  0.28583677  0.64943141     1.58000
O1646       O  0.69120373  0.23652353  0.68470354    -0.81300
O1647       O  0.72304884  0.33398282  0.60963230    -0.75500
O1648       O  0.76651569  0.45678244  0.68704581    -0.81300
O1649       O  0.57605272  0.37960490  0.69154776    -0.83100
O1650       O  0.56326204  0.21233551  0.66454299    -0.81400
C1651       C  0.73059058  0.36708986  0.61492118     0.86800
O1652       O  0.64939467  0.27402482  0.64679895    -0.88500
O1653       O  0.71366619  0.31915622  0.69621837    -0.88600
O1654       O  0.66865844  0.28167322  0.73166823    -0.75700
Mg1655     Mg  0.71903619  0.42303575  0.64984274     1.58000
O1656       O  0.80258400  0.43357304  0.68148150    -0.83100
H1657       H  0.61716628  0.36143346  0.59384117    -0.06800
O1658       O  0.60637130  0.29430219  0.69772610    -0.88300
H1659       H  0.59374211  0.28653832  0.75037440    -0.06600
H1660       H  0.64445091  0.26293890  0.59367954    -0.06800
C1661       C  0.60350597  0.30547963  0.72783407     0.86800
C1662       C  0.63641235  0.37078125  0.61618946     0.87400
C1663       C  0.63557440  0.27222956  0.61688259     0.87400
H1664       H  0.72091432  0.31660647  0.74937780    -0.06800
O1665       O  0.72694111  0.39313863  0.73070237    -0.75800
Mg1666     Mg  0.61777055  0.24940887  0.69448670     1.58000
H1667       H  0.69173700  0.40864418  0.75040906    -0.06800
C1668       C  0.54571425  0.34950092  0.68727706     0.92400
O1669       O  0.53472591  0.24401797  0.65560392    -0.83000
C1670       C  0.53414230  0.21379056  0.65947003     0.92400
O1671       O  0.71174029  0.47096962  0.65429996    -0.83000
Mg1672     Mg  0.75709816  0.37491304  0.69060747     1.58200
O1673       O  0.54418557  0.31894174  0.68012521    -0.81300
O1674       O  0.76433617  0.29877505  0.65351838    -0.83000
C1675       C  0.97964208  0.32468072  0.68172459    -0.16700
C1676       C  0.51169446  0.35105905  0.68835614    -0.31900
H1677       H  0.97727427  0.29782874  0.67773664     0.12300
H1678       H  0.51468204  0.37831621  0.69033941     0.12900
C1679       C  0.83930103  0.31537346  0.67036209    -0.16700
C1680       C  0.82942749  0.33479627  0.64942650    -0.31900
H1681       H  0.81970587  0.29499591  0.68913455     0.12300
H1682       H  0.85017246  0.35787263  0.63378321     0.12900
C1683       C  0.87808924  0.38620935  0.71480994    -0.13600
C1684       C  0.89000215  0.36221984  0.72672282     0.08500
C1685       C  0.88825322  0.35458613  0.76374033    -0.13600
C1686       C  0.87480420  0.37042067  0.78808795    -0.13600
C1687       C  0.86016926  0.39205717  0.77582661     0.08500
C1688       C  0.86124021  0.39905346  0.73868025    -0.13600
H1689       H  0.88058645  0.39392656  0.68666296     0.12500
H1690       H  0.89667733  0.33588307  0.77384094     0.12500
H1691       H  0.87457796  0.36456747  0.81661730     0.12500
H1692       H  0.84938551  0.41467084  0.72813049     0.12500
C1693       C  0.83654861  0.31069875  0.56143035    -0.13600
C1694       C  0.80749231  0.27336267  0.55708891     0.08500
C1695       C  0.81019554  0.24661966  0.57764510    -0.13600
C1696       C  0.83641128  0.25741791  0.60552576    -0.13600
C1697       C  0.86538512  0.29446379  0.60893679     0.08500
C1698       C  0.86611372  0.32046424  0.58496218    -0.13600
H1699       H  0.83630663  0.33327771  0.54784231     0.12500
H1700       H  0.79152839  0.21734259  0.57335035     0.12500
H1701       H  0.83397742  0.23672989  0.62448086     0.12500
H1702       H  0.88739721  0.34941300  0.58756903     0.12500
C1703       C  0.97512268  0.31716038  0.60379891    -0.13600
C1704       C  0.93807787  0.29634475  0.61495089     0.08500
C1705       C  0.91560969  0.26190997  0.59781760    -0.13600
C1706       C  0.92898185  0.25025050  0.56917509    -0.13600
C1707       C  0.96675946  0.26807661  0.56210286     0.08500
C1708       C  0.98981654  0.30200591  0.58000638    -0.13600
H1709       H  0.99316715  0.34489021  0.61421341     0.12500
H1710       H  0.88766477  0.24383506  0.60598127     0.12500
H1711       H  0.90944650  0.22857564  0.55157187     0.12500
H1712       H  0.51867460  0.31862324  0.57434641     0.12500
C1713       C  0.85880441  0.00542939  0.66303659    -0.16700
C1714       C  0.82888052  0.49862327  0.68098616    -0.31900
H1715       H  0.86106297  0.98440361  0.64781478     0.12300
H1716       H  0.82622649  0.52046430  0.69394435     0.12900
C1717       C  0.99249682  0.14865283  0.65998692    -0.16700
C1718       C  0.49813716  0.17961692  0.66002788    -0.31900
H1719       H  0.01770810  0.14799698  0.65825286     0.12300
H1720       H  0.47356800  0.18166839  0.66230681     0.12900
C1721       C  0.87775980  0.02691363  0.74715204    -0.13600
C1722       C  0.90584142  0.02917571  0.72514385     0.08500
C1723       C  0.91905581  0.00511451  0.73241369    -0.13600
C1724       C  0.90289652  0.47914716  0.76133719    -0.13600
C1725       C  0.86993908  0.47230044  0.77841524     0.08500
C1726       C  0.85754054  0.49701126  0.77053841    -0.13600
H1727       H  0.86807248  0.04609365  0.74327935     0.12500
H1728       H  0.94154211  0.00691414  0.71663949     0.12500
H1729       H  0.91537976  0.46303395  0.76834242     0.12500
H1730       H  0.83267928  0.49368162  0.78261498     0.12500
C1731       C  0.82936029  0.04972112  0.62025838    -0.13600
C1732       C  0.86527829  0.05967646  0.60907741     0.08500
C1733       C  0.87215903  0.06072074  0.57188758    -0.13600
C1734       C  0.84420338  0.05200893  0.54680209    -0.13600
C1735       C  0.80746030  0.03857785  0.55783979     0.08500
C1736       C  0.80042301  0.03779745  0.59506940    -0.13600
H1737       H  0.82345394  0.05050618  0.64858375     0.12500
H1738       H  0.89925863  0.06818551  0.56211034     0.12500
H1739       H  0.85092860  0.05350356  0.51831172     0.12500
H1740       H  0.77263145  0.02716973  0.60477121     0.12500
C1741       C  0.97141621  0.14397819  0.58372793    -0.13600
C1742       C  0.93845239  0.13049099  0.60333539     0.08500
C1743       C  0.91581038  0.14502696  0.59530922    -0.13600
C1744       C  0.92626958  0.17258912  0.56893317    -0.13600
C1745       C  0.96151866  0.18969597  0.55297967     0.08500
C1746       C  0.98355513  0.17419664  0.56052002    -0.13600
H1747       H  0.98901937  0.13257702  0.58814077     0.12500
H1748       H  0.88970948  0.13466885  0.60901079     0.12500
H1749       H  0.90577422  0.17866675  0.56043385     0.12500
H1750       H  0.01029058  0.18521842  0.54790334     0.12500
C1751       C  0.96933672  0.34043182  0.75788410    -0.13600
C1752       C  0.96040248  0.36213852  0.73634076     0.08500
C1753       C  0.47867683  0.39912805  0.74203952    -0.13600
C1754       C  0.50810273  0.41611705  0.76718335    -0.13600
C1755       C  0.52019823  0.39486891  0.78560076     0.08500
C1756       C  0.99952927  0.35697010  0.78132695    -0.13600
H1757       H  0.95488846  0.31060107  0.75410904     0.12500
H1758       H  0.47209829  0.41635881  0.72581000     0.12500
H1759       H  0.52225778  0.44588925  0.77103065     0.12500
H1760       H  0.00724357  0.33906395  0.79474727     0.12500
C1761       C  0.51589136  0.10863885  0.71368913    -0.13600
C1762       C  0.97816702  0.09926120  0.72034482     0.08500
C1763       C  0.96868635  0.10333417  0.75575211    -0.13600
C1764       C  0.99514890  0.11703232  0.78317702    -0.13600
C1765       C  0.53367528  0.12961218  0.77570258     0.08500
C1766       C  0.54323807  0.12690208  0.73989326    -0.13600
H1767       H  0.52364124  0.10359505  0.68727595     0.12500
H1768       H  0.94091473  0.09649174  0.76217539     0.12500
H1769       H  0.98649875  0.11860302  0.81042642     0.12500
H1770       H  0.57170430  0.13809193  0.73222155     0.12500
C1771       C  0.64844150  0.14360178  0.66707205    -0.16700
C1772       C  0.66633684  0.17292415  0.68941007    -0.31900
H1773       H  0.62824995  0.14237511  0.64809260     0.12300
H1774       H  0.68964685  0.17618752  0.70478874     0.12900
C1775       C  0.68645471  0.50870887  0.65739268    -0.16700
C1776       C  0.65770158  0.01200533  0.65185723    -0.31900
H1777       H  0.71368248  0.53308884  0.66100032     0.12300
H1778       H  0.63103859  0.98712395  0.64825348     0.12900
C1779       C  0.64106532  0.03234859  0.75178265    -0.13600
C1780       C  0.62625571  0.02304974  0.71679458     0.08500
C1781       C  0.59792357  0.48874487  0.71144753    -0.13600
C1782       C  0.58640464  0.46078372  0.73761889    -0.13600
C1783       C  0.59923961  0.46970911  0.77347483     0.08500
C1784       C  0.62742202  0.00608958  0.77923399    -0.13600
H1785       H  0.66325447  0.06015969  0.75802089     0.12500
H1786       H  0.58538472  0.48132861  0.68490741     0.12500
H1787       H  0.56777257  0.43233146  0.72958201     0.12500
H1788       H  0.63864167  0.01510206  0.80619128     0.12500
C1789       C  0.58936444  0.07402880  0.73612343    -0.13600
C1790       C  0.62703399  0.09288417  0.72716734     0.08500
C1791       C  0.65191006  0.12053320  0.75088520    -0.13600
C1792       C  0.63940593  0.13424596  0.77842813    -0.13600
C1793       C  0.60148578  0.11832840  0.78547802     0.08500
C1794       C  0.57690258  0.08567548  0.76614782    -0.13600
H1795       H  0.56963594  0.05116543  0.71939340     0.12500
H1796       H  0.68125891  0.13338882  0.74642348     0.12500
H1797       H  0.65969504  0.15855981  0.79319574     0.12500
H1798       H  0.54779847  0.07091939  0.77242088     0.12500
C1799       C  0.67702642  0.03986058  0.57690315    -0.13600
C1800       C  0.69804971  0.07018970  0.60007317     0.08500
C1801       C  0.73682235  0.08836798  0.59678825    -0.13600
C1802       C  0.75372998  0.07534656  0.57203934    -0.13600
C1803       C  0.73232729  0.04291571  0.55094151     0.08500
C1804       C  0.69361805  0.02584234  0.55404226    -0.13600
H1805       H  0.64921408  0.52406858  0.58293002     0.12500
H1806       H  0.75402668  0.11182393  0.61421973     0.12500
H1807       H  0.78343037  0.09035316  0.56988129     0.12500
H1808       H  0.67633581  0.49881061  0.54293272     0.12500
C1809       C  0.71793460  0.17891244  0.62206327    -0.13600
C1810       C  0.69622470  0.14188922  0.60973121     0.08500
C1811       C  0.69035775  0.13563298  0.57232861    -0.13600
C1812       C  0.70573273  0.16534957  0.54816379    -0.13600
C1813       C  0.72568824  0.20242385  0.56067977     0.08500
C1814       C  0.73057348  0.20880597  0.59814494    -0.13600
H1815       H  0.72453423  0.18483583  0.65045291     0.12500
H1816       H  0.67325425  0.10780284  0.56168351     0.12500
H1817       H  0.70113056  0.15935778  0.51944673     0.12500
H1818       H  0.74513693  0.23687507  0.60878760     0.12500
C1819       C  0.49556452  0.15964901  0.98038888    -0.16700
C1820       C  0.51662691  0.19014797  0.99996603    -0.31900
H1821       H  0.96659178  0.15510162  0.96648568     0.12300
H1822       H  0.53860087  0.19221256  0.01690782     0.12900
C1823       C  0.51851557  0.32690423  0.01204595    -0.16700
C1824       C  0.48961673  0.33081485  0.00691539    -0.31900
H1825       H  0.54461808  0.35055676  0.02042927     0.12300
H1826       H  0.96313902  0.30697339  0.00027958     0.12900
C1827       C  0.57338936  0.35029853  0.95507487    -0.13600
C1828       C  0.54802546  0.31269622  0.94711383     0.08500
C1829       C  0.53460143  0.30330458  0.91157002    -0.13600
C1830       C  0.54636401  0.33053294  0.88500017    -0.13600
C1831       C  0.56912076  0.36847181  0.89383075     0.08500
C1832       C  0.58072702  0.37798626  0.92987492    -0.13600
H1833       H  0.58634662  0.35855384  0.98136543     0.12500
H1834       H  0.01320435  0.27582795  0.90496149     0.12500
H1835       H  0.53647539  0.32193312  0.85758115     0.12500
H1836       H  0.59678339  0.40678584  0.93823267     0.12500
C1837       C  0.53119786  0.19421087  0.89161666    -0.13600
C1838       C  0.56904950  0.20772691  0.88613983     0.08500
C1839       C  0.59424353  0.24018469  0.90544572    -0.13600
C1840       C  0.58187292  0.25506927  0.93280323    -0.13600
C1841       C  0.54396357  0.23944348  0.93948849     0.08500
C1842       C  0.51907235  0.21082544  0.91655555    -0.13600
H1843       H  0.51044902  0.16974099  0.87739469     0.12500
H1844       H  0.62349856  0.25324740  0.90047372     0.12500
H1845       H  0.60181616  0.27800886  0.94931521     0.12500
H1846       H  0.98762760  0.19866147  0.92053759     0.12500
C1847       C  0.68963621  0.17331999  0.00044470    -0.16700
C1848       C  0.65845711  0.16415817  0.01793145    -0.31900
H1849       H  0.69227507  0.15281314  0.98466409     0.12300
H1850       H  0.65517356  0.18530445  0.03160629     0.12900
C1851       C  0.81468758  0.32102804  0.00076800    -0.16700
C1852       C  0.84675781  0.33132342  0.98461915    -0.31900
H1853       H  0.80875841  0.34163097  0.01148628     0.12300
H1854       H  0.85240469  0.31063509  0.97367495     0.12900
C1855       C  0.79971422  0.31110849  0.92003760    -0.13600
C1856       C  0.76645397  0.29753592  0.93898323     0.08500
C1857       C  0.74255740  0.30962111  0.92742795    -0.13600
C1858       C  0.75327494  0.33605074  0.89953988    -0.13600
C1859       C  0.79018733  0.35607388  0.88743202     0.08500
C1860       C  0.81268876  0.34177431  0.89728907    -0.13600
H1861       H  0.81657586  0.29889006  0.92400606     0.12500
H1862       H  0.71530286  0.29784945  0.93896815     0.12500
H1863       H  0.73221253  0.33932621  0.88679173     0.12500
H1864       H  0.84004610  0.35335370  0.88595257     0.12500
C1865       C  0.70304384  0.22233984  0.90854039    -0.13600
C1866       C  0.69582953  0.22464530  0.94511981     0.08500
C1867       C  0.65982676  0.21455509  0.95557806    -0.13600
C1868       C  0.63085650  0.19861907  0.93063164    -0.13600
C1869       C  0.63815011  0.19687130  0.89387744     0.08500
C1870       C  0.67482983  0.20994785  0.88309561    -0.13600
H1871       H  0.73049216  0.23003937  0.89967840     0.12500
H1872       H  0.65392224  0.21805928  0.98329383     0.12500
H1873       H  0.60294317  0.18785373  0.94005654     0.12500
H1874       H  0.68145337  0.20913791  0.85488143     0.12500
C1875       C  0.82277222  0.01598063  0.00704221    -0.16700
C1876       C  0.82904029  0.98858034  0.01452625    -0.31900
H1877       H  0.84542019  0.04433825  0.00396559     0.12300
H1878       H  0.80465872  0.45917184  0.01494559     0.12900
C1879       C  0.67385618  0.98600786  0.99688270    -0.16700
C1880       C  0.66215524  0.00310993  0.97486047    -0.31900
H1881       H  0.65655870  0.46722787  0.01554860     0.12300
H1882       H  0.68194789  0.02610024  0.95847015     0.12900
C1883       C  0.65524114  0.41680096  0.90218164    -0.13600
C1884       C  0.64808625  0.44060252  0.88170955     0.08500
C1885       C  0.67267369  0.47917998  0.88627690    -0.13600
C1886       C  0.70127287  0.49300221  0.91185858    -0.13600
C1887       C  0.70403111  0.46912010  0.93633244     0.08500
C1888       C  0.67992285  0.43069936  0.93152825    -0.13600
H1889       H  0.63946076  0.38713037  0.89776172     0.12500
H1890       H  0.66906590  0.49908488  0.87114021     0.12500
H1891       H  0.72158601  0.02060600  0.91269426     0.12500
H1892       H  0.67871012  0.41120825  0.95117397     0.12500
C1893       C  0.81100993  0.49327287  0.92894488    -0.13600
C1894       C  0.77649973  0.47253322  0.94573193     0.08500
C1895       C  0.75595084  0.43445644  0.93822138    -0.13600
C1896       C  0.76647905  0.41874710  0.91077451    -0.13600
C1897       C  0.80130568  0.43851645  0.89468367     0.08500
C1898       C  0.82416228  0.47596638  0.90578914    -0.13600
H1899       H  0.82901849  0.02242460  0.93571844     0.12500
H1900       H  0.73137542  0.41666305  0.95323308     0.12500
H1901       H  0.74616542  0.39221173  0.90126069     0.12500
H1902       H  0.85180969  0.49267186  0.89527727     0.12500
C1903       C  0.91848571  0.26027934  0.09452472    -0.13600
C1904       C  0.93983946  0.29309725  0.11481668     0.08500
C1905       C  0.97837573  0.31219299  0.11021589    -0.13600
C1906       C  0.99497698  0.29969986  0.08600838    -0.13600
C1907       C  0.97367982  0.26955469  0.06287716     0.08500
C1908       C  0.93514615  0.24931857  0.06786851    -0.13600
H1909       H  0.88901002  0.24378145  0.09849747     0.12500
H1910       H  0.49575132  0.33735099  0.12454681     0.12500
H1911       H  0.52486441  0.31523717  0.08332187     0.12500
H1912       H  0.91800157  0.22544195  0.05087497     0.12500
C1913       C  0.87422449  0.29585991  0.07134715    -0.13600
C1914       C  0.86659277  0.29783780  0.10799669     0.08500
C1915       C  0.82966836  0.28426463  0.11822509    -0.13600
C1916       C  0.80163184  0.27127349  0.09243618    -0.13600
C1917       C  0.80920172  0.26892768  0.05593844     0.08500
C1918       C  0.84547617  0.27946560  0.04606834    -0.13600
H1919       H  0.90224501  0.30712503  0.06209256     0.12500
H1920       H  0.82261670  0.28505065  0.14629824     0.12500
H1921       H  0.77414720  0.26365803  0.10101393     0.12500
H1922       H  0.85178270  0.27587806  0.01855051     0.12500
C1923       C  0.81760941  0.99316137  0.33561911    -0.16700
C1924       C  0.84890573  0.49236350  0.34303144    -0.31900
H1925       H  0.79212337  0.96818859  0.32783521     0.12300
H1926       H  0.87456534  0.51723913  0.35018253     0.12900
C1927       C  0.85356402  0.35809252  0.32869674    -0.16700
C1928       C  0.82558550  0.32472948  0.31901383    -0.31900
H1929       H  0.88098328  0.36239672  0.33253279     0.12300
H1930       H  0.79838609  0.32098465  0.31505551     0.12900
C1931       C  0.83114106  0.46439486  0.42002365    -0.13600
C1932       C  0.80923582  0.43595823  0.39535507     0.08500
C1933       C  0.77085354  0.42185388  0.39647027    -0.13600
C1934       C  0.75490570  0.43357076  0.42324233    -0.13600
C1935       C  0.77706804  0.46415102  0.44600328     0.08500
C1936       C  0.81567631  0.47926083  0.44345199    -0.13600
H1937       H  0.85973753  0.97419819  0.42094988     0.12500
H1938       H  0.75304969  0.40304275  0.37569714     0.12500
H1939       H  0.72525296  0.41942722  0.42499534     0.12500
H1940       H  0.83425053  0.00096210  0.46129775     0.12500
C1941       C  0.81122576  0.32006335  0.42963121    -0.13600
C1942       C  0.77420931  0.30655344  0.44011065     0.08500
C1943       C  0.75550156  0.32131827  0.42186467    -0.13600
C1944       C  0.77222297  0.34703435  0.39409446    -0.13600
C1945       C  0.81005508  0.36398013  0.38769876     0.08500
C1946       C  0.82942382  0.34989877  0.40583904    -0.13600
H1947       H  0.82700848  0.30881760  0.44104965     0.12500
H1948       H  0.72881562  0.31523179  0.42957325     0.12500
H1949       H  0.75540436  0.35385142  0.37798285     0.17000
H1950       H  0.85859114  0.36150849  0.40117210     0.12500
C1951       C  0.91726822  0.42517687  0.26253736    -0.13600
C1952       C  0.87959246  0.40862403  0.27091391     0.08500
C1953       C  0.85416246  0.37797352  0.25025084    -0.13600
C1954       C  0.86594365  0.36140987  0.22502771    -0.13600
C1955       C  0.90362932  0.37622468  0.21773892     0.08500
C1956       C  0.92912404  0.40961781  0.23544995    -0.13600
H1957       H  0.93747031  0.44911422  0.27781336     0.12500
H1958       H  0.82495845  0.36502888  0.25574059     0.12500
H1959       H  0.84526680  0.33593898  0.21207921     0.12500
H1960       H  0.95821831  0.42280452  0.22945953     0.12500
C1961       C  0.64527176  0.48777752  0.33148861    -0.16700
C1962       C  0.67647852  0.99836822  0.31450070    -0.31900
H1963       H  0.63982900  0.50869273  0.34227327     0.12300
H1964       H  0.68202177  0.97763898  0.30347422     0.12900
C1965       C  0.99041435  0.32861853  0.35311317    -0.16700
C1966       C  0.52164470  0.33834510  0.33714940    -0.31900
H1967       H  0.98616922  0.34938755  0.36624778     0.12300
H1968       H  0.52521102  0.31812851  0.32190946     0.12900
C1969       C  0.54061556  0.36222709  0.41862847    -0.13600
C1970       C  0.57079334  0.36766209  0.39802484     0.08500
C1971       C  0.58876699  0.34849023  0.40760535    -0.13600
C1972       C  0.57437943  0.32189143  0.43538562    -0.13600
C1973       C  0.54008439  0.31176476  0.45134219     0.08500
C1974       C  0.52436312  0.33351953  0.44343615    -0.13600
H1975       H  0.52763701  0.37826052  0.41317471     0.12500
H1976       H  0.61298961  0.35318548  0.39294050     0.12500
H1977       H  0.08808389  0.30668792  0.44123485     0.12500
H1978       H  0.49849437  0.32755270  0.45539923     0.12500
C1979       C  0.63612970  0.44018167  0.42572413    -0.13600
C1980       C  0.64291335  0.43864136  0.38878053     0.08500
C1981       C  0.67942510  0.45068890  0.37813712    -0.13600
C1982       C  0.70872295  0.46758830  0.40296630    -0.13600
C1983       C  0.70174776  0.46797939  0.44007880     0.08500
C1984       C  0.66472759  0.45299311  0.45100622    -0.13600
H1985       H  0.60869924  0.43171069  0.43519415     0.12500
H1986       H  0.68551328  0.44752526  0.35045615     0.12500
H1987       H  0.73688711  0.98059088  0.39238687     0.12500
H1988       H  0.65795586  0.45260064  0.47935765     0.12500
C1989       C  0.96280370  0.36484895  0.26334108    -0.13600
C1990       C  0.97083179  0.36345408  0.22669575     0.08500
C1991       C  0.50659424  0.37468194  0.21717011    -0.13600
C1992       C  0.53389455  0.38563583  0.24333178    -0.13600
C1993       C  0.52601084  0.38774582  0.27973775     0.08500
C1994       C  0.99114340  0.37914541  0.28909505    -0.13600
H1995       H  0.93482591  0.35492190  0.27208406     0.12500
H1996       H  0.51409259  0.37457521  0.18912993     0.12500
H1997       H  0.56140434  0.39297758  0.23504258     0.12500
H1998       H  0.98479941  0.38221456  0.31679182     0.12500
C1999       C  0.95833967  0.17660766  0.11743910    -0.13600
C2000       C  0.93403296  0.13943004  0.10701784     0.08500
C2001       C  0.92567571  0.13145132  0.07008157    -0.13600
C2002       C  0.94140598  0.16011545  0.04452761    -0.13600
C2003       C  0.96851412  0.19649002  0.05489425     0.08500
C2004       C  0.97660697  0.20418521  0.09178310    -0.13600
H2005       H  0.46302224  0.18243116  0.14566363     0.12500
H2006       H  0.90771396  0.10318969  0.06086607     0.12500
H2007       H  0.93307376  0.15361461  0.01655966     0.12500
H2008       H  0.49612722  0.23069989  0.10166100     0.12500
C2009       C  0.84512439  0.09070740  0.09824412    -0.13600
C2010       C  0.85425730  0.06686664  0.11632772     0.08500
C2011       C  0.83130415  0.02839209  0.11011036    -0.13600
C2012       C  0.80183376  0.01438262  0.08578669    -0.13600
C2013       C  0.79513275  0.03818818  0.06498048     0.08500
C2014       C  0.81648455  0.07659618  0.07213845    -0.13600
H2015       H  0.86085401  0.12030472  0.10327854     0.12500
H2016       H  0.83695320  0.00874750  0.12305329     0.12500
H2017       H  0.78783946  0.48585760  0.07986261     0.12500
H2018       H  0.81202094  0.09570626  0.05655093     0.12500
C2019       C  0.86786338  0.47110742  0.24349644    -0.13600
C2020       C  0.88146968  0.48067867  0.27897132     0.08500
C2021       C  0.90385963  0.01808142  0.28735174    -0.13600
C2022       C  0.91194116  0.04563677  0.26169350    -0.13600
C2023       C  0.90091798  0.03601854  0.22550678     0.08500
C2024       C  0.87942476  0.49822347  0.21679887    -0.13600
H2025       H  0.84779924  0.44267860  0.23642973     0.12500
H2026       H  0.91577111  0.02653117  0.31406437     0.12500
H2027       H  0.92785237  0.07444364  0.26992873     0.12500
H2028       H  0.86931621  0.48948133  0.18946536     0.12500
C2029       C  0.73219043  0.14579348  0.09569064    -0.13600
C2030       C  0.69887564  0.13829435  0.11244637     0.08500
C2031       C  0.68699527  0.16370777  0.10591879    -0.13600
C2032       C  0.70662654  0.19422068  0.08340211    -0.13600
C2033       C  0.73612776  0.19811839  0.06258925     0.08500
C2034       C  0.74963293  0.17429302  0.06973646    -0.13600
H2035       H  0.74420518  0.12901259  0.10162458     0.12500
H2036       H  0.66163372  0.15972521  0.11733760     0.12500
H2037       H  0.69637938  0.21291901  0.07936682     0.12500
H2038       H  0.77295765  0.17712349  0.05470240     0.12500
C2039       C  0.70683652  0.05483842  0.04494674    -0.13600
C2040       C  0.72127952  0.03260485  0.05565293     0.08500
C2041       C  0.72004484  0.02391525  0.09234544    -0.13600
C2042       C  0.70521955  0.03749576  0.11770429    -0.13600
C2043       C  0.68923791  0.05832079  0.10684521     0.08500
C2044       C  0.68941838  0.06605075  0.06995634    -0.13600
H2045       H  0.70825692  0.06282008  0.01696509     0.12500
H2046       H  0.73009672  0.00621304  0.10143638     0.12500
H2047       H  0.70552248  0.03097017  0.14595885     0.12500
H2048       H  0.67656227  0.08114327  0.06054229     0.12500
C2049       C  0.58315179  0.99993616  0.23199045    -0.13600
C2050       C  0.61995058  0.01945112  0.21957175     0.08500
C2051       C  0.64183591  0.00416781  0.22850475    -0.13600
C2052       C  0.62782781  0.47287458  0.25123758    -0.13600
C2053       C  0.59536289  0.46070735  0.27118035     0.08500
C2054       C  0.57157362  0.47296337  0.25968697    -0.13600
H2055       H  0.56244462  0.00424786  0.21978702     0.12500
H2056       H  0.66898163  0.01526455  0.21680003     0.12500
H2057       H  0.64421696  0.46010327  0.25505708     0.12500
H2058       H  0.54467617  0.46195168  0.27186700     0.12500
C2059       C  0.65805356  0.18397943  0.33621624    -0.16700
C2060       C  0.66325239  0.15562989  0.34218492    -0.31900
H2061       H  0.68128565  0.21220846  0.33462819     0.12300
H2062       H  0.63969333  0.12761678  0.34429166     0.12900
C2063       C  0.98772495  0.15229956  0.31897991    -0.16700
C2064       C  0.52250663  0.18299151  0.31895452    -0.31900
H2065       H  0.98382374  0.12477927  0.32236467     0.12300
H2066       H  0.52606525  0.21000051  0.31375444     0.12900
C2067       C  0.55417488  0.23764557  0.37921075    -0.13600
C2068       C  0.56382569  0.21076100  0.38626648     0.08500
C2069       C  0.55852379  0.19627633  0.42124744    -0.13600
C2070       C  0.54454134  0.20877869  0.44844506    -0.13600
C2071       C  0.53168400  0.23309579  0.44060205     0.08500
C2072       C  0.53530552  0.24607704  0.40505839    -0.13600
H2073       H  0.56024812  0.25143883  0.35338876     0.12500
H2074       H  0.56547430  0.17542856  0.42767244     0.12500
H2075       H  0.54286186  0.19846317  0.47557256     0.12500
H2076       H  0.52434999  0.26338357  0.39730771     0.12500
C2077       C  0.67587012  0.20192541  0.43637236    -0.13600
C2078       C  0.69081036  0.23837801  0.44947949     0.08500
C2079       C  0.67192929  0.25694631  0.44041346    -0.13600
C2080       C  0.64602910  0.24381802  0.41184598    -0.13600
C2081       C  0.63358766  0.20851361  0.39635875     0.08500
C2082       C  0.64601491  0.18648532  0.41244352    -0.13600
H2083       H  0.68681851  0.18493096  0.44539355     0.12500
H2084       H  0.67756994  0.28188288  0.45482237     0.12500
H2085       H  0.63575105  0.26113159  0.40216711     0.12500
H2086       H  0.63418993  0.15771080  0.40454239     0.12500
C2087       C  0.51593944  0.10294110  0.26361769    -0.13600
C2088       C  0.53933543  0.14168556  0.26725946     0.08500
C2089       C  0.53424492  0.16423763  0.24295211    -0.13600
C2090       C  0.00363960  0.14819883  0.21896324    -0.13600
C2091       C  0.97992007  0.10938719  0.21488200     0.08500
C2092       C  0.98825548  0.08649726  0.23541783    -0.13600
H2093       H  0.51602094  0.08441668  0.28356452     0.12500
H2094       H  0.55111795  0.19415440  0.24524630     0.12500
H2095       H  0.99879863  0.16742126  0.20405758     0.12500
H2096       H  0.97269402  0.05670964  0.23179342     0.12500
C2097       C  0.65514000  0.14085490  0.23795486    -0.13600
C2098       C  0.63205824  0.10281315  0.22886880     0.08500
C2099       C  0.59850387  0.08356490  0.24752988    -0.13600
C2100       C  0.58881950  0.10106349  0.27396491    -0.13600
C2101       C  0.60888987  0.13968013  0.27807436     0.08500
C2102       C  0.64248264  0.15945742  0.25967990    -0.13600
H2103       H  0.68241727  0.15710559  0.22647705     0.12500
H2104       H  0.57833004  0.05570123  0.24117292     0.12500
H2105       H  0.56538163  0.08425815  0.29087321     0.12500
H2106       H  0.65967316  0.18921955  0.26320650     0.12500
C2107       C  0.62050127  0.67811525  0.33467066     0.02000
C2108       C  0.59678508  0.65886615  0.30499511     0.02000
C2109       C  0.56410702  0.66007049  0.30021845     0.02000
C2110       C  0.55601537  0.68057748  0.32579983     0.02000
C2111       C  0.57794140  0.69629663  0.35774555     0.02000
C2112       C  0.61021592  0.69418542  0.36279534     0.02000
C2113       C  0.63987119  0.58617788  0.19643609     0.02000
C2114       C  0.63388613  0.54935976  0.19162035     0.02000
C2115       C  0.64826702  0.54226909  0.15996705    -0.18500
C2116       C  0.67099723  0.57000721  0.13497560     0.02000
C2117       C  0.67524327  0.60581169  0.13841817     0.02000
C2118       C  0.65763709  0.61170876  0.16791155    -0.18500
H2119       H  0.65959666  0.63830873  0.16974673     0.04000
H2120       H  0.64339758  0.51446958  0.15576018     0.04000
C2121       C  0.91220610  0.56454040  0.19638714     0.02000
C2122       C  0.94857445  0.59473411  0.18937410     0.02000
C2123       C  0.95379104  0.61488699  0.15756052    -0.18500
C2124       C  0.92477032  0.61023141  0.13497811     0.02000
C2125       C  0.88832639  0.58044260  0.14185614     0.02000
C2126       C  0.88315311  0.55893370  0.17301403    -0.18500
H2127       H  0.85544601  0.53695931  0.17937762     0.04000
H2128       H  0.98170707  0.63591990  0.15051581     0.04000
C2129       C  0.61553927  0.94867863  0.33176975     0.02000
C2130       C  0.58860933  0.93634745  0.30377531     0.02000
C2131       C  0.55630874  0.90092873  0.30700106     0.02000
C2132       C  0.55253776  0.87785845  0.33676122     0.02000
C2133       C  0.57971219  0.89044316  0.36449073     0.02000
C2134       C  0.61238896  0.92554158  0.36124822     0.02000
C2135       C  0.84660363  0.95593500  0.33907544     0.02000
C2136       C  0.86433612  0.95128643  0.30823745     0.02000
C2137       C  0.86425652  0.91762729  0.30403874     0.02000
C2138       C  0.84768227  0.88999256  0.33100654     0.02000
C2139       C  0.82781428  0.89360096  0.36065905     0.02000
C2140       C  0.82668295  0.92700308  0.36441426     0.02000
C2141       C  0.94159330  0.84581713  0.19860315     0.02000
C2142       C  0.91391640  0.85489397  0.19211429     0.02000
C2143       C  0.89208838  0.83984513  0.16075761    -0.18500
C2144       C  0.89515916  0.81510174  0.13676345     0.02000
C2145       C  0.92395042  0.80743537  0.14265484     0.02000
C2146       C  0.94425809  0.82077345  0.17491542    -0.18500
H2147       H  0.96433929  0.81272009  0.18088651     0.04000
H2148       H  0.87157155  0.84732519  0.15495055     0.04000
C2149       C  0.78539182  0.50941023  0.00345736     0.02000
C2150       C  0.77310550  0.52404257  0.03119085     0.02000
C2151       C  0.73759804  0.51964504  0.02799528     0.02000
C2152       C  0.71474527  0.49930871  0.99788528     0.02000
C2153       C  0.72679267  0.98343876  0.96982033     0.02000
C2154       C  0.76276019  0.98882551  0.97306576     0.02000
C2155       C  0.78317655  0.78259554  0.00128004     0.02000
C2156       C  0.77797409  0.75735576  0.02946405     0.02000
C2157       C  0.74462155  0.72282759  0.03085339     0.02000
C2158       C  0.71866196  0.71293298  0.00241092     0.02000
C2159       C  0.72429166  0.73789392  0.97382504     0.02000
C2160       C  0.75744166  0.77281250  0.97247457     0.02000
C2161       C  0.51032136  0.78968054  0.00527752     0.02000
C2162       C  0.99079000  0.76058572  0.03116916     0.02000
C2163       C  0.98795516  0.72565715  0.02668330     0.02000
C2164       C  0.50623599  0.72105925  0.99810004     0.02000
C2165       C  0.52519571  0.74854436  0.97134712     0.02000
C2166       C  0.52778758  0.78346427  0.97521671     0.02000
C2167       C  0.66879750  0.61920377  0.67077905     0.02000
C2168       C  0.68638534  0.61343029  0.64019590     0.02000
C2169       C  0.68260331  0.57794099  0.63458005     0.02000
C2170       C  0.66048729  0.54892580  0.65939088     0.02000
C2171       C  0.64366683  0.55477969  0.69021156     0.02000
C2172       C  0.64815881  0.59030527  0.69604420     0.02000
C2173       C  0.60856832  0.68199787  0.86580116     0.02000
C2174       C  0.57929761  0.68894434  0.85976801     0.02000
C2175       C  0.55739164  0.67290328  0.82855861    -0.18500
C2176       C  0.56144789  0.64862168  0.80478960     0.02000
C2177       C  0.59064626  0.64173648  0.81125650     0.02000
C2178       C  0.61201080  0.65712294  0.84258264    -0.18500
H2179       H  0.63309275  0.65041304  0.84844065     0.04000
H2180       H  0.53639341  0.67961087  0.82245051     0.04000
C2181       C  0.57843400  0.89712236  0.86474477     0.02000
C2182       C  0.61511244  0.92592611  0.85646128     0.02000
C2183       C  0.62009560  0.94583425  0.82431015    -0.18500
C2184       C  0.59075911  0.94081135  0.80173531     0.02000
C2185       C  0.55422642  0.91184377  0.81019586     0.02000
C2186       C  0.54920984  0.89224931  0.84248293    -0.18500
H2187       H  0.52139846  0.87130805  0.85001539     0.04000
H2188       H  0.64797272  0.96603689  0.81640945     0.04000
C2189       C  0.95890773  0.61127337  0.66030346     0.02000
C2190       C  0.95132752  0.58669076  0.68986856     0.02000
C2191       C  0.91684408  0.55349097  0.69198047     0.02000
C2192       C  0.89120945  0.54459097  0.66352459     0.02000
C2193       C  0.89713844  0.56996642  0.63536861     0.02000
C2194       C  0.93191483  0.60341693  0.63303354     0.02000
C2195       C  0.94454248  0.82382149  0.67824777     0.02000
C2196       C  0.93385226  0.84184682  0.70430684     0.02000
C2197       C  0.89939088  0.83988217  0.70012559     0.02000
C2198       C  0.87582799  0.81910988  0.67069090     0.02000
C2199       C  0.88829213  0.80484668  0.64268452     0.02000
C2200       C  0.92302173  0.80721104  0.64643625     0.02000
C2201       C  0.81341995  0.92394329  0.86303574     0.02000
C2202       C  0.80567565  0.88653850  0.85935761     0.02000
C2203       C  0.81908308  0.87767909  0.82829959    -0.18500
C2204       C  0.84237090  0.90419772  0.80262286     0.02000
C2205       C  0.84919042  0.94116826  0.80526837     0.02000
C2206       C  0.83386825  0.94949086  0.83535242    -0.18500
H2207       H  0.83899550  0.97740066  0.83799714     0.04000
H2208       H  0.81297076  0.84931553  0.82522228     0.04000
C2209       C  0.51204841  0.74202434  0.46959107     0.02000
C2210       C  0.51794057  0.77833441  0.47562772     0.02000
C2211       C  0.50099900  0.78375597  0.50590079    -0.18500
C2212       C  0.98332565  0.75718405  0.53221412     0.02000
C2213       C  0.97724224  0.72088801  0.52551467     0.02000
C2214       C  0.48860595  0.71329399  0.49340668    -0.18500
H2215       H  0.48287203  0.68535499  0.48812836     0.04000
H2216       H  0.50509766  0.81115944  0.51056099     0.04000
C2217       C  0.76006967  0.77862283  0.47133469     0.02000
C2218       C  0.72252955  0.74992066  0.47696986     0.02000
C2219       C  0.71441367  0.72777462  0.50803557    -0.18500
C2220       C  0.74150420  0.73103837  0.53272588     0.02000
C2221       C  0.77874189  0.76072689  0.52824159     0.02000
C2222       C  0.78638140  0.78370660  0.49792284    -0.18500
H2223       H  0.81436813  0.80604297  0.49434758     0.04000
H2224       H  0.68603584  0.70599589  0.51216069     0.04000
C2225       C  0.76210485  0.98172674  0.47308177     0.02000
C2226       C  0.73228113  0.98817824  0.46715528     0.02000
C2227       C  0.72687320  0.50975114  0.49316870    -0.18500
C2228       C  0.74798567  0.52486851  0.52506878     0.02000
C2229       C  0.77837711  0.51920743  0.52988812     0.02000
C2230       C  0.78257546  0.49552993  0.50525528    -0.18500
H2231       H  0.80265462  0.98910180  0.51232227     0.04000
H2232       H  0.70516750  0.51565622  0.48783016     0.04000
O2233       O  0.94772441  0.51286070  0.97040116    -0.88600
C2234       C  0.52412315  0.56110887  0.05489919     0.87400
Mg2235     Mg  0.90880221  0.95606202  0.97636935     1.58100
O2236       O  0.55669555  0.54405210  0.97403109    -0.88300
O2237       O  0.49280254  0.55213244  0.93864856    -0.75700
C2238       C  0.48884437  0.86752468  0.00827207     0.92500
O2239       O  0.93373913  0.49256588  0.05836958    -0.75500
O2240       O  0.96215050  0.86755704  0.01352465    -0.83000
Mg2241     Mg  0.95176882  0.54212424  0.02012284     1.58000
C2242       C  0.62682506  0.50102537  0.98143545     0.92400
O2243       O  0.96440694  0.59300793  0.98791545    -0.81300
H2244       H  0.57164893  0.55497876  0.92208844    -0.06600
C2245       C  0.53297899  0.96891932  0.05313846     0.87300
O2246       O  0.94397097  0.94251795  0.93777242    -0.75800
O2247       O  0.51029960  0.55899477  0.02484891    -0.88500
O2248       O  0.62334003  0.52907562  0.98671108    -0.81300
C2249       C  0.62302670  0.62822993  0.01502050     0.92500
C2250       C  0.49369946  0.62531091  0.98407256     0.92400
Mg2251     Mg  0.53766282  0.95172760  0.97396729     1.58000
O2252       O  0.52010383  0.89658751  0.00286595    -0.81300
O2253       O  0.55674121  0.00220988  0.93685836    -0.75500
O2254       O  0.59187300  0.62525376  0.01067256    -0.81300
O2255       O  0.89284216  0.52535388  0.01473070    -0.83100
O2256       O  0.90639029  0.87838241  0.97895104    -0.81400
C2257       C  0.56263606  0.53525980  0.94395156     0.86800
O2258       O  0.98462557  0.94023897  0.97258381    -0.88500
O2259       O  0.54457508  0.98241834  0.02292731    -0.88600
O2260       O  0.99806182  0.94295635  0.05975470    -0.75700
Mg2261     Mg  0.54151105  0.58572552  0.97740296     1.58000
O2262       O  0.62710559  0.60031989  0.01607454    -0.83100
H2263       H  0.94452123  0.51707373  0.91682742    -0.06800
O2264       O  0.93820541  0.95526584  0.02255227    -0.88300
H2265       H  0.92453245  0.94419184  0.07477656    -0.06600
H2266       H  0.98290663  0.93169421  0.91904672    -0.06800
C2267       C  0.93281823  0.96388657  0.05295307     0.86800
C2268       C  0.96131871  0.52715959  0.94097544     0.87400
C2269       C  0.97123624  0.93787444  0.94224380     0.87400
H2270       H  0.55181474  0.97834843  0.07583164    -0.06800
O2271       O  0.54997484  0.55428563  0.05908553    -0.75800
Mg2272     Mg  0.95119716  0.91278851  0.01834934     1.58000
H2273       H  0.51350267  0.56825938  0.07829267    -0.06800
C2274       C  0.86509045  0.49284199  0.01160949     0.92400
O2275       O  0.86610678  0.89599995  0.98513435    -0.83000
C2276       C  0.87389161  0.87066002  0.98423635     0.92400
O2277       O  0.52552041  0.62932505  0.98163415    -0.83000
Mg2278     Mg  0.58414012  0.53989502  0.02059528     1.58200
O2279       O  0.86958234  0.96645645  0.00960865    -0.81300
O2280       O  0.59699929  0.96531698  0.97801763    -0.83000
O2281       O  0.78292406  0.67863462  0.29827157    -0.88600
C2282       C  0.85652347  0.72489982  0.38265373     0.87400
Mg2283     Mg  0.74106801  0.62151155  0.30057313     1.58100
O2284       O  0.89329212  0.70936641  0.30342424    -0.88300
O2285       O  0.83023279  0.71878545  0.26645604    -0.75700
C2286       C  0.82010722  0.52952777  0.33617203     0.92500
O2287       O  0.76952897  0.65905526  0.38457015    -0.75500
O2288       O  0.79003398  0.52884333  0.33749905    -0.83000
Mg2289     Mg  0.78738655  0.70870735  0.34708326     1.58000
C2290       C  0.95526023  0.65551193  0.31703060     0.92400
O2291       O  0.80080835  0.75997507  0.31497275    -0.81300
H2292       H  0.90888432  0.71960566  0.25160183    -0.06600
C2293       C  0.86030373  0.62945789  0.38188995     0.87300
O2294       O  0.77559229  0.60756036  0.26178194    -0.75800
O2295       O  0.84375560  0.72266042  0.35209181    -0.88500
O2296       O  0.95677977  0.68625111  0.32396583    -0.81300
C2297       C  0.95857178  0.79116358  0.34884412     0.92500
C2298       C  0.82979405  0.79165874  0.31459117     0.92400
Mg2299     Mg  0.86889906  0.61473896  0.30312901     1.58000
O2300       O  0.85070056  0.55949742  0.33168192    -0.81300
O2301       O  0.89067887  0.66668568  0.26742981    -0.75500
O2302       O  0.92778972  0.78881845  0.34293619    -0.81300
O2303       O  0.72839261  0.69305757  0.34116815    -0.83100
O2304       O  0.73656274  0.54327835  0.30149810    -0.81400
C2305       C  0.89827419  0.69972113  0.27334910     0.86800
O2306       O  0.81486171  0.60427039  0.29767486    -0.88500
O2307       O  0.87336417  0.64453918  0.35255891    -0.88600
O2308       O  0.82665548  0.60416818  0.38479446    -0.75700
Mg2309     Mg  0.87785001  0.75129238  0.30720617     1.58000
O2310       O  0.96212799  0.76277422  0.34966092    -0.83100
H2311       H  0.77992149  0.68333208  0.24471900    -0.06800
O2312       O  0.76870658  0.61841867  0.34711646    -0.88300
H2313       H  0.75427323  0.60648086  0.39908193    -0.06600
H2314       H  0.81435011  0.59599304  0.24416354    -0.06800
C2315       C  0.76350956  0.62676826  0.37772399     0.86800
C2316       C  0.79666434  0.69311500  0.26892268     0.87400
C2317       C  0.80234775  0.60230973  0.26698394     0.87400
H2318       H  0.87769510  0.63843580  0.40567044    -0.06800
O2319       O  0.88215127  0.71802203  0.38805783    -0.75800
Mg2320     Mg  0.78042143  0.57532066  0.34234775     1.58000
H2321       H  0.84543064  0.73251810  0.40532038    -0.06800
C2322       C  0.70022435  0.66073144  0.33879964     0.92400
O2323       O  0.69682597  0.56147605  0.30800188    -0.83000
C2324       C  0.70429264  0.53589669  0.30744757     0.92400
O2325       O  0.86167795  0.79544695  0.31372739    -0.83000
Mg2326     Mg  0.91673723  0.70183251  0.35203151     1.58200
O2327       O  0.70260189  0.63214763  0.33392940    -0.81300
O2328       O  0.92530264  0.62581034  0.31063239    -0.83000
O2329       O  0.62521634  0.85871916  0.64501746    -0.88600
C2330       C  0.69945449  0.89868109  0.72735365     0.87400
Mg2331     Mg  0.57941744  0.80363176  0.64839375     1.58100
O2332       O  0.72777534  0.87615194  0.64735779    -0.88300
O2333       O  0.67201185  0.89422706  0.61028283    -0.75700
C2334       C  0.64818136  0.69826633  0.68276866     0.92500
O2335       O  0.61032848  0.84074048  0.73156423    -0.75500
O2336       O  0.61978008  0.70073095  0.68750553    -0.83000
Mg2337     Mg  0.63347019  0.89094772  0.69358256     1.58000
C2338       C  0.78908467  0.82414411  0.65403315     0.92400
O2339       O  0.65376923  0.94466904  0.66255069    -0.81300
H2340       H  0.74180145  0.88553587  0.59509578    -0.06600
C2341       C  0.69673682  0.80166610  0.72734528     0.87300
O2342       O  0.60856837  0.78195946  0.61114381    -0.75800
O2343       O  0.68641462  0.89750810  0.69709045    -0.88500
O2344       O  0.78929677  0.85411482  0.66004819    -0.81300
C2345       C  0.79803537  0.95851423  0.68574457     0.92500
C2346       C  0.68490622  0.97321714  0.65597031     0.92400
Mg2347     Mg  0.70065117  0.78206962  0.64871353     1.58000
O2348       O  0.68005779  0.72679497  0.67819654    -0.81300
O2349       O  0.72247155  0.83251275  0.61123633    -0.75500
O2350       O  0.76666905  0.95463889  0.68934452    -0.81300
O2351       O  0.57743100  0.88331610  0.68866797    -0.83100
O2352       O  0.55905180  0.71474302  0.66129569    -0.81400
C2353       C  0.73134698  0.86589916  0.61705501     0.86800
O2354       O  0.64567160  0.77373203  0.64577621    -0.88500
O2355       O  0.70999433  0.81451262  0.69739832    -0.88600
O2356       O  0.66244621  0.77913782  0.73135442    -0.75700
Mg2357     Mg  0.72005952  0.92239343  0.65074872     1.58000
O2358       O  0.80205007  0.93053868  0.68478114    -0.83100
H2359       H  0.61954965  0.86258299  0.59173889    -0.06800
O2360       O  0.60386924  0.79615765  0.69609976    -0.88300
H2361       H  0.58964305  0.78769484  0.74836482    -0.06600
H2362       H  0.64082839  0.76230873  0.59270660    -0.06800
C2363       C  0.60057286  0.80704181  0.72618893     0.86800
C2364       C  0.63784003  0.87155078  0.61485173     0.87400
C2365       C  0.63214607  0.77205370  0.61570531     0.87400
H2366       H  0.71459758  0.81035628  0.75077858    -0.06800
O2367       O  0.72401386  0.89003906  0.73184676    -0.75800
Mg2368     Mg  0.61228577  0.74991365  0.69309216     1.58000
H2369       H  0.68967384  0.90709799  0.75051041    -0.06800
C2370       C  0.54684546  0.85338930  0.68523826     0.92400
O2371       O  0.53051131  0.74638202  0.65443501    -0.83000
C2372       C  0.52975212  0.71601732  0.65787506     0.92400
O2373       O  0.71395036  0.97181350  0.65368436    -0.83000
Mg2374     Mg  0.75467475  0.87096451  0.69329051     1.58200
O2375       O  0.54464537  0.82243653  0.67901114    -0.81300
O2376       O  0.75945102  0.79259686  0.65302949    -0.83000
C2377       C  0.97816148  0.82109174  0.68412519    -0.16700
C2378       C  0.51313741  0.85519660  0.68627281    -0.31900
H2379       H  0.97559742  0.79417469  0.67996741     0.12300
H2380       H  0.51606111  0.88245636  0.68771295     0.12900
C2381       C  0.83660887  0.80972335  0.67053768    -0.16700
C2382       C  0.82507053  0.82744924  0.64908433    -0.31900
H2383       H  0.81810077  0.79047426  0.69070931     0.12300
H2384       H  0.84499186  0.85019000  0.63257932     0.12900
C2385       C  0.87441477  0.88203830  0.71430981    -0.13600
C2386       C  0.88726791  0.85887129  0.72650853     0.08500
C2387       C  0.88712149  0.85290229  0.76378513    -0.13600
C2388       C  0.87492907  0.86991532  0.78811624    -0.13600
C2389       C  0.85986677  0.89113076  0.77582286     0.08500
C2390       C  0.85911109  0.89640109  0.73847188    -0.13600
H2391       H  0.87540065  0.88833322  0.68588166     0.12500
H2392       H  0.89599699  0.83467979  0.77420461     0.12500
H2393       H  0.87599504  0.86529031  0.81677627     0.12500
H2394       H  0.84696636  0.91177875  0.72800542     0.12500
C2395       C  0.83812802  0.80804334  0.56000406    -0.13600
C2396       C  0.81067965  0.77045373  0.55389671     0.08500
C2397       C  0.81470050  0.74363861  0.57277386    -0.13600
C2398       C  0.83897458  0.75413461  0.60237618    -0.13600
C2399       C  0.86591173  0.79161867  0.60840951     0.08500
C2400       C  0.86661414  0.81805066  0.58500375    -0.13600
H2401       H  0.83709297  0.83037349  0.54673918     0.12500
H2402       H  0.79708437  0.71442131  0.56681638     0.12500
H2403       H  0.83607955  0.73292887  0.62085916     0.12500
H2404       H  0.88671741  0.84718557  0.58911827     0.12500
C2405       C  0.97506950  0.81612463  0.60557448    -0.13600
C2406       C  0.93825813  0.79394504  0.61694286     0.08500
C2407       C  0.91705466  0.75888163  0.60077740    -0.13600
C2408       C  0.93085386  0.74823231  0.57180118    -0.13600
C2409       C  0.96843452  0.76789808  0.56366464     0.08500
C2410       C  0.99061182  0.80215138  0.58142657    -0.13600
H2411       H  0.99223167  0.84398606  0.61612598     0.12500
H2412       H  0.88971457  0.73970090  0.60987201     0.12500
H2413       H  0.91157323  0.72616777  0.55455469     0.12500
H2414       H  0.51809834  0.81800209  0.57291286     0.12500
C2415       C  0.85905120  0.50673981  0.66230536    -0.16700
C2416       C  0.82912422  0.99630080  0.68318466    -0.31900
H2417       H  0.86145319  0.48524149  0.64817451     0.12300
H2418       H  0.82651179  0.01793589  0.69668801     0.12900
C2419       C  0.99508884  0.64643560  0.65902768    -0.16700
C2420       C  0.49384821  0.68143730  0.65947481    -0.31900
H2421       H  0.01976422  0.64491883  0.65598338     0.12300
H2422       H  0.46896782  0.68301324  0.66052860     0.12900
C2423       C  0.87613278  0.52599588  0.74609705    -0.13600
C2424       C  0.90507241  0.52888327  0.72497598     0.08500
C2425       C  0.91931632  0.50601245  0.73374169    -0.13600
C2426       C  0.90259024  0.97792518  0.75973350    -0.13600
C2427       C  0.87053260  0.97204413  0.77804509     0.08500
C2428       C  0.85900704  0.99769569  0.77127629    -0.13600
H2429       H  0.86600227  0.54470548  0.74158353     0.12500
H2430       H  0.94261348  0.50849525  0.71893111     0.12500
H2431       H  0.91447429  0.96103881  0.76569927     0.12500
H2432       H  0.83460694  0.99493869  0.78389049     0.12500
C2433       C  0.83149272  0.55201479  0.61942109    -0.13600
C2434       C  0.86697735  0.56051270  0.60830657     0.08500
C2435       C  0.87342650  0.55972849  0.57124746    -0.13600
C2436       C  0.84525683  0.55034619  0.54622905    -0.13600
C2437       C  0.80869352  0.53785872  0.55744249     0.08500
C2438       C  0.80223039  0.53891969  0.59457511    -0.13600
H2439       H  0.82613397  0.55467822  0.64751913     0.12500
H2440       H  0.90033495  0.56638444  0.56157741     0.12500
H2441       H  0.85171680  0.55076584  0.51778028     0.12500
H2442       H  0.77465891  0.52893494  0.60457215     0.12500
C2443       C  0.97449889  0.64525859  0.58382470    -0.13600
C2444       C  0.94089203  0.63062484  0.60257315     0.08500
C2445       C  0.91741967  0.64390906  0.59338595    -0.13600
C2446       C  0.92763373  0.67111646  0.56676840    -0.13600
C2447       C  0.96371823  0.69018651  0.55287227     0.08500
C2448       C  0.98664021  0.67595821  0.56128439    -0.13600
H2449       H  0.99255489  0.63442824  0.58840253     0.12500
H2450       H  0.89077285  0.63274661  0.60613091     0.12500
H2451       H  0.90645075  0.67535246  0.55636508     0.12500
H2452       H  0.01391135  0.68814590  0.54960153     0.12500
C2453       C  0.96720118  0.83938758  0.75905892    -0.13600
C2454       C  0.95848968  0.86054499  0.73654781     0.08500
C2455       C  0.48075474  0.90228437  0.74154702    -0.13600
C2456       C  0.50971190  0.91849585  0.76720185    -0.13600
C2457       C  0.52106923  0.89654240  0.78541779     0.08500
C2458       C  0.99786479  0.85649458  0.78173023    -0.13600
H2459       H  0.95240846  0.80943323  0.75635009     0.12500
H2460       H  0.47472953  0.92001990  0.72547388     0.12500
H2461       H  0.52428626  0.94823875  0.77143452     0.12500
H2462       H  0.00554348  0.83879097  0.79561305     0.12500
C2463       C  0.51444036  0.60918990  0.71348841    -0.13600
C2464       C  0.97834055  0.59761598  0.72008222     0.08500
C2465       C  0.96828585  0.60135661  0.75533971    -0.13600
C2466       C  0.99408497  0.61394158  0.78322655    -0.13600
C2467       C  0.53303421  0.63030393  0.77557031     0.08500
C2468       C  0.54209023  0.62713563  0.73962980    -0.13600
H2469       H  0.52198281  0.60466300  0.68674375     0.12500
H2470       H  0.94055964  0.59493066  0.76133899     0.12500
H2471       H  0.98498912  0.61497773  0.81041957     0.12500
H2472       H  0.57044138  0.63841501  0.73157073     0.12500
C2473       C  0.67233193  0.65618963  0.67680134    -0.16700
C2474       C  0.64334087  0.66091745  0.67974105    -0.31900
H2475       H  0.69940326  0.68001140  0.68141382     0.12300
H2476       H  0.61557788  0.63711693  0.67754394     0.12900
C2477       C  0.68787145  0.00943798  0.65357690    -0.16700
C2478       C  0.65705969  0.51233636  0.65482243    -0.31900
H2479       H  0.71486570  0.03429244  0.65631600     0.12300
H2480       H  0.63020438  0.48814284  0.64981984     0.12900
C2481       C  0.63964928  0.53402635  0.75469179    -0.13600
C2482       C  0.62627553  0.52544696  0.71910300     0.08500
C2483       C  0.59797166  0.98622334  0.70986970    -0.13600
C2484       C  0.58706505  0.95891498  0.73655201    -0.13600
C2485       C  0.60085637  0.96861311  0.77202385     0.08500
C2486       C  0.62503213  0.50721675  0.78164761    -0.13600
H2487       H  0.66170430  0.56164782  0.76179296     0.12500
H2488       H  0.58483661  0.97830221  0.68359984     0.12500
H2489       H  0.56791625  0.93037268  0.72931487     0.12500
H2490       H  0.63533174  0.51575011  0.80895910     0.12500
C2491       C  0.59516329  0.57824355  0.73826798    -0.13600
C2492       C  0.63291582  0.59855235  0.72943253     0.08500
C2493       C  0.65649182  0.62903078  0.75133998    -0.13600
C2494       C  0.64229195  0.64247824  0.77735611    -0.13600
C2495       C  0.60425994  0.62401995  0.78476971     0.08500
C2496       C  0.58122216  0.59008115  0.76676017    -0.13600
H2497       H  0.57639190  0.55394952  0.72252290     0.12500
H2498       H  0.68587901  0.64425984  0.74634528     0.12500
H2499       H  0.66126616  0.66827958  0.79097571     0.12500
H2500       H  0.55217157  0.57400785  0.77314048     0.12500
C2501       C  0.67893084  0.53878667  0.58049347    -0.13600
C2502       C  0.70068354  0.56960445  0.60290579     0.08500
C2503       C  0.73929027  0.58811620  0.59790330    -0.13600
C2504       C  0.75534289  0.57488675  0.57240189    -0.13600
C2505       C  0.73334672  0.54175604  0.55246295     0.08500
C2506       C  0.69479659  0.52438536  0.55714561    -0.13600
H2507       H  0.64724498  0.02505947  0.57854675     0.12500
H2508       H  0.75708381  0.61217309  0.61441232     0.12500
H2509       H  0.78489985  0.59025361  0.56880483     0.12500
H2510       H  0.67555414  0.00063375  0.53911757     0.12500
C2511       C  0.73048308  0.68000784  0.62130817    -0.13600
C2512       C  0.70425579  0.64308248  0.61197187     0.08500
C2513       C  0.69198229  0.63536758  0.57595651    -0.13600
C2514       C  0.70534861  0.66373646  0.55036546    -0.13600
C2515       C  0.72892532  0.70115949  0.56063472     0.08500
C2516       C  0.73942393  0.70892993  0.59713515    -0.13600
H2517       H  0.74321928  0.68677963  0.64776023     0.12500
H2518       H  0.67169603  0.60741769  0.56760720     0.12500
H2519       H  0.69646088  0.65639443  0.52252521     0.12500
H2520       H  0.75634816  0.73728981  0.60651770     0.12500
C2521       C  0.48929859  0.65744053  0.98087926    -0.16700
C2522       C  0.51173953  0.68892470  0.99878521    -0.31900
H2523       H  0.96456899  0.65324743  0.96762316     0.12300
H2524       H  0.53461794  0.69146624  0.01453635     0.12900
C2525       C  0.51386915  0.82649221  0.00996565    -0.16700
C2526       C  0.48492001  0.83081330  0.00696170    -0.31900
H2527       H  0.54033672  0.85013605  0.01737486     0.12300
H2528       H  0.96098383  0.80672019  0.00334355     0.12900
C2529       C  0.57081943  0.84958015  0.95463555    -0.13600
C2530       C  0.54501494  0.81223894  0.94620257     0.08500
C2531       C  0.53237626  0.80324689  0.91040502    -0.13600
C2532       C  0.54518029  0.83071782  0.88405137    -0.13600
C2533       C  0.56821863  0.86847868  0.89334908     0.08500
C2534       C  0.57916187  0.87761231  0.92957189    -0.13600
H2535       H  0.58338820  0.85736075  0.98112756     0.12500
H2536       H  0.01114037  0.77437617  0.90345910     0.12500
H2537       H  0.53583649  0.82251764  0.85642749     0.12500
H2538       H  0.59559399  0.90631975  0.93811532     0.12500
C2539       C  0.52919090  0.69340150  0.89193721    -0.13600
C2540       C  0.56722260  0.70864089  0.88593772     0.08500
C2541       C  0.59167156  0.74174619  0.90474122    -0.13600
C2542       C  0.57854418  0.75602089  0.93192875    -0.13600
C2543       C  0.54053962  0.73893072  0.93895643     0.08500
C2544       C  0.51620440  0.70930732  0.91667315    -0.13600
H2545       H  0.50903660  0.66827232  0.87813114     0.12500
H2546       H  0.62094416  0.75580638  0.89947249     0.12500
H2547       H  0.59799579  0.77969612  0.94799165     0.12500
H2548       H  0.98582061  0.69602938  0.92008028     0.12500
C2549       C  0.68675549  0.67446451  0.00116620    -0.16700
C2550       C  0.65507486  0.66548672  0.01777557    -0.31900
H2551       H  0.68962991  0.65361335  0.98630435     0.12300
H2552       H  0.65167188  0.68676851  0.03095404     0.12900
C2553       C  0.81337374  0.82153663  0.00393576    -0.16700
C2554       C  0.84583225  0.83194629  0.98868272    -0.31900
H2555       H  0.80716871  0.84205986  0.01431409     0.12300
H2556       H  0.85163828  0.81135277  0.97782149     0.12900
C2557       C  0.80045720  0.81304671  0.92280677    -0.13600
C2558       C  0.76674907  0.79938049  0.94102379     0.08500
C2559       C  0.74321039  0.81164783  0.92886207    -0.13600
C2560       C  0.75429097  0.83774896  0.90067190    -0.13600
C2561       C  0.79125797  0.85741891  0.88872054     0.08500
C2562       C  0.81372708  0.84344134  0.89962397    -0.13600
H2563       H  0.81724837  0.80085142  0.92735805     0.12500
H2564       H  0.71581626  0.80005563  0.94000395     0.12500
H2565       H  0.73330686  0.84073939  0.88738257     0.12500
H2566       H  0.84121414  0.85491526  0.88864182     0.12500
C2567       C  0.70280811  0.72537532  0.90920046    -0.13600
C2568       C  0.69510334  0.72700863  0.94578276     0.08500
C2569       C  0.65909724  0.71735757  0.95571757    -0.13600
C2570       C  0.63046679  0.70206807  0.93035740    -0.13600
C2571       C  0.63814794  0.70067983  0.89364382     0.08500
C2572       C  0.67501555  0.71384959  0.88334704    -0.13600
H2573       H  0.73030254  0.73292974  0.90063910     0.12500
H2574       H  0.65288280  0.72066798  0.98336290     0.12500
H2575       H  0.60247367  0.69124919  0.93953197     0.12500
H2576       H  0.68207473  0.71354526  0.85518730     0.12500
C2577       C  0.82279796  0.51549447  0.00676606    -0.16700
C2578       C  0.82811692  0.48725000  0.01291257    -0.31900
H2579       H  0.84589245  0.54375930  0.00471372     0.12300
H2580       H  0.80595094  0.96042673  0.01756891     0.12900
C2581       C  0.67553431  0.48895420  0.99744745    -0.16700
C2582       C  0.66413266  0.50772707  0.97754693    -0.31900
H2583       H  0.65524967  0.96635713  0.01675346     0.12300
H2584       H  0.68399298  0.53182933  0.96239108     0.12900
C2585       C  0.65401532  0.91499010  0.90278936    -0.13600
C2586       C  0.64834307  0.93910355  0.88113619     0.08500
C2587       C  0.67435257  0.97749449  0.88462370    -0.13600
C2588       C  0.70272233  0.99096100  0.91041790    -0.13600
C2589       C  0.70375645  0.96712112  0.93615120     0.08500
C2590       C  0.67842009  0.92885151  0.93233115    -0.13600
H2591       H  0.63746782  0.88528521  0.89899122     0.12500
H2592       H  0.67201309  0.99765979  0.86857753     0.12500
H2593       H  0.71911694  0.52274581  0.91485655     0.12500
H2594       H  0.67649538  0.90955700  0.95265983     0.12500
C2595       C  0.81165195  0.99314441  0.92966619    -0.13600
C2596       C  0.77676424  0.97224348  0.94573523     0.08500
C2597       C  0.75571363  0.93453233  0.93673567    -0.13600
C2598       C  0.76646957  0.91953927  0.90889506    -0.13600
C2599       C  0.80193730  0.93909844  0.89428256     0.08500
C2600       C  0.82495284  0.97617071  0.90627117    -0.13600
H2601       H  0.82826876  0.52269016  0.93442297     0.12500
H2602       H  0.73046423  0.91656077  0.95066879     0.12500
H2603       H  0.74588543  0.89377899  0.89769393     0.12500
H2604       H  0.85281793  0.99280971  0.89627094     0.12500
C2605       C  0.91755637  0.75907512  0.09483206    -0.13600
C2606       C  0.93907356  0.79190983  0.11509454     0.08500
C2607       C  0.97760228  0.81079444  0.11024930    -0.13600
C2608       C  0.99396392  0.79831309  0.08565141    -0.13600
C2609       C  0.97244747  0.76831272  0.06243183     0.08500
C2610       C  0.93396290  0.74808689  0.06786687    -0.13600
H2611       H  0.88811306  0.74260159  0.09901711     0.12500
H2612       H  0.49358761  0.83804584  0.12277432     0.12500
H2613       H  0.52155326  0.81511436  0.08108238     0.12500
H2614       H  0.91663133  0.72424661  0.05090681     0.12500
C2615       C  0.87229824  0.79374857  0.07235144    -0.13600
C2616       C  0.86525715  0.79638321  0.10904387     0.08500
C2617       C  0.82848938  0.78342012  0.11960609    -0.13600
C2618       C  0.80018524  0.77065239  0.09406978    -0.13600
C2619       C  0.80727791  0.76789789  0.05750919     0.08500
C2620       C  0.84322328  0.77745062  0.04740024    -0.13600
H2621       H  0.90013728  0.80459067  0.06274638     0.12500
H2622       H  0.82180400  0.78462244  0.14772059     0.12500
H2623       H  0.77290321  0.76358155  0.10285581     0.12500
H2624       H  0.84906645  0.77338358  0.01985178     0.12500
C2625       C  0.81870655  0.49407569  0.33757921    -0.16700
C2626       C  0.84712017  0.99113662  0.34386577    -0.31900
H2627       H  0.79262576  0.46886200  0.33193341     0.12300
H2628       H  0.87207557  0.01553795  0.35341453     0.12900
C2629       C  0.85267746  0.85745152  0.32769339    -0.16700
C2630       C  0.82524631  0.82415037  0.31694965    -0.31900
H2631       H  0.88010495  0.86196511  0.33208562     0.12300
H2632       H  0.79803686  0.82017865  0.31240471     0.12900
C2633       C  0.83014406  0.96221787  0.42137264    -0.13600
C2634       C  0.80813964  0.93475543  0.39590739     0.08500
C2635       C  0.76998296  0.92185234  0.39643154    -0.13600
C2636       C  0.75427077  0.93378999  0.42327721    -0.13600
C2637       C  0.77664129  0.96371839  0.44669131     0.08500
C2638       C  0.81507523  0.97742247  0.44497141    -0.13600
H2639       H  0.86083250  0.47727561  0.41909901     0.12500
H2640       H  0.75220815  0.90356243  0.37529269     0.12500
H2641       H  0.72464940  0.92025695  0.42461440     0.12500
H2642       H  0.83457243  0.50343050  0.45924474     0.12500
C2643       C  0.81134775  0.81734259  0.42707087    -0.13600
C2644       C  0.77492037  0.80426887  0.43913471     0.08500
C2645       C  0.75625826  0.82041346  0.42347997    -0.13600
C2646       C  0.77228105  0.84676149  0.39613489    -0.13600
C2647       C  0.80968563  0.86286535  0.38776882     0.08500
C2648       C  0.82916584  0.84784106  0.40404296    -0.13600
H2649       H  0.82706837  0.80533767  0.43687216     0.12500
H2650       H  0.73024434  0.81487565  0.43309363     0.12500
H2651       H  0.75522588  0.85462693  0.38193290     0.17000
H2652       H  0.85813906  0.85919852  0.39850314     0.12500
C2653       C  0.91615039  0.92459115  0.26278085    -0.13600
C2654       C  0.87835373  0.90834307  0.27047753     0.08500
C2655       C  0.85316462  0.87779873  0.24955303    -0.13600
C2656       C  0.86521156  0.86097628  0.22489176    -0.13600
C2657       C  0.90299469  0.87553367  0.21818234     0.08500
C2658       C  0.92831286  0.90887603  0.23610768    -0.13600
H2659       H  0.93620153  0.94839532  0.27831112     0.12500
H2660       H  0.82388985  0.86498713  0.25458453     0.12500
H2661       H  0.84459684  0.83550789  0.21189637     0.12500
H2662       H  0.95748600  0.92195101  0.23058100     0.12500
C2663       C  0.64504904  0.98801742  0.33192184    -0.16700
C2664       C  0.67642831  0.49748780  0.31379319    -0.31900
H2665       H  0.63916680  0.00851736  0.34301435     0.12300
H2666       H  0.68158037  0.47637818  0.30307999     0.12900
C2667       C  0.99074363  0.82855929  0.35350289    -0.16700
C2668       C  0.52167814  0.83859021  0.33724456    -0.31900
H2669       H  0.98642777  0.84942953  0.36628923     0.12300
H2670       H  0.52513225  0.81796223  0.32266533     0.12900
C2671       C  0.54029184  0.86227384  0.41851627    -0.13600
C2672       C  0.57067358  0.86777917  0.39820941     0.08500
C2673       C  0.58838284  0.84839944  0.40804388    -0.13600
C2674       C  0.57347854  0.82150277  0.43559266    -0.13600
C2675       C  0.53884231  0.81112196  0.45092507     0.08500
C2676       C  0.52340992  0.83311633  0.44283479    -0.13600
H2677       H  0.52753766  0.87850756  0.41302563     0.12500
H2678       H  0.61279642  0.85314164  0.39372700     0.12500
H2679       H  0.09052990  0.80904583  0.44329992     0.12500
H2680       H  0.49732915  0.82706965  0.45431634     0.12500
C2681       C  0.63644801  0.94075643  0.42552578    -0.13600
C2682       C  0.64304338  0.93877982  0.38862900     0.08500
C2683       C  0.67951501  0.95091156  0.37777485    -0.13600
C2684       C  0.70897636  0.96832756  0.40234588    -0.13600
C2685       C  0.70219057  0.96901438  0.43945085     0.08500
C2686       C  0.66524257  0.95407492  0.45060833    -0.13600
H2687       H  0.60904358  0.93228907  0.43508438     0.12500
H2688       H  0.68541972  0.94749359  0.35009024     0.12500
H2689       H  0.73667265  0.47986522  0.39313177     0.12500
H2690       H  0.65869992  0.95412185  0.47896864     0.12500
C2691       C  0.96290033  0.86456951  0.26369749    -0.13600
C2692       C  0.97076512  0.86297781  0.22702312     0.08500
C2693       C  0.50663684  0.87448075  0.21683937    -0.13600
C2694       C  0.53406080  0.88535387  0.24293547    -0.13600
C2695       C  0.52643604  0.88785244  0.27935419     0.08500
C2696       C  0.99129287  0.87866344  0.28944309    -0.13600
H2697       H  0.93499669  0.85493061  0.27249151     0.12500
H2698       H  0.51393868  0.87402771  0.18879428     0.12500
H2699       H  0.56145496  0.89233208  0.23459656     0.12500
H2700       H  0.98506744  0.88199652  0.31710094     0.12500
C2701       C  0.96040986  0.67656401  0.11684629    -0.13600
C2702       C  0.93550438  0.63938505  0.10686030     0.08500
C2703       C  0.92589840  0.63116835  0.07018159    -0.13600
C2704       C  0.94067649  0.65964569  0.04448930    -0.13600
C2705       C  0.96824006  0.69596545  0.05430825     0.08500
C2706       C  0.97782284  0.70392925  0.09087402    -0.13600
H2707       H  0.46515698  0.68513349  0.14524078     0.12500
H2708       H  0.90759126  0.60288258  0.06124310     0.12500
H2709       H  0.93131001  0.65304689  0.01679728     0.12500
H2710       H  0.49557513  0.73265116  0.09984222     0.12500
C2711       C  0.84641486  0.59154548  0.09896482    -0.13600
C2712       C  0.85569335  0.56751318  0.11647322     0.08500
C2713       C  0.83293409  0.52915409  0.10963612    -0.13600
C2714       C  0.80359473  0.51545479  0.08516552    -0.13600
C2715       C  0.79684456  0.53949778  0.06478471     0.08500
C2716       C  0.81794324  0.57778837  0.07266248    -0.13600
H2717       H  0.86201177  0.62105864  0.10451339     0.12500
H2718       H  0.83863707  0.50939439  0.12223849     0.12500
H2719       H  0.78599672  0.98471768  0.08087504     0.12500
H2720       H  0.81339960  0.59709794  0.05752780     0.12500
C2721       C  0.86684710  0.97080242  0.24329876    -0.13600
C2722       C  0.87952218  0.98029849  0.27909001     0.08500
C2723       C  0.90671328  0.51828558  0.28687108    -0.13600
C2724       C  0.91461781  0.54582226  0.26128395    -0.13600
C2725       C  0.90259815  0.53617132  0.22533868     0.08500
C2726       C  0.87853957  0.99804495  0.21668913    -0.13600
H2727       H  0.84737365  0.94231776  0.23586646     0.12500
H2728       H  0.91926535  0.52662493  0.31335223     0.12500
H2729       H  0.93092342  0.57461522  0.26946981     0.12500
H2730       H  0.86914693  0.98937588  0.18915671     0.12500
C2731       C  0.73122020  0.64715514  0.09749548    -0.13600
C2732       C  0.69698473  0.63824559  0.11302668     0.08500
C2733       C  0.68384736  0.66246495  0.10567480    -0.13600
C2734       C  0.70320510  0.69317525  0.08343770    -0.13600
C2735       C  0.73352934  0.69811375  0.06342981     0.08500
C2736       C  0.74837629  0.67565626  0.07156362    -0.13600
H2737       H  0.74408139  0.63133065  0.10423958     0.12500
H2738       H  0.65779340  0.65741783  0.11623937     0.12500
H2739       H  0.69225114  0.71120884  0.07900361     0.12500
H2740       H  0.77254238  0.67956205  0.05735689     0.12500
C2741       C  0.70932726  0.55799082  0.04554386    -0.13600
C2742       C  0.72359056  0.53550843  0.05589267     0.08500
C2743       C  0.72199252  0.52628030  0.09248503    -0.13600
C2744       C  0.70651504  0.53912052  0.11795909    -0.13600
C2745       C  0.69013843  0.55964342  0.10729841     0.08500
C2746       C  0.69103226  0.56820036  0.07052486    -0.13600
H2747       H  0.71137331  0.56677386  0.01778856     0.12500
H2748       H  0.73206358  0.50853734  0.10138704     0.12500
H2749       H  0.70649836  0.53211010  0.14610820     0.12500
H2750       H  0.67797729  0.58310686  0.06112933     0.12500
C2751       C  0.58230883  0.49908179  0.23146543    -0.13600
C2752       C  0.61918806  0.51869446  0.21935414     0.08500
C2753       C  0.64107890  0.50347636  0.22840368    -0.13600
C2754       C  0.62860402  0.97343828  0.25123717    -0.13600
C2755       C  0.59598629  0.96095263  0.27104649     0.08500
C2756       C  0.57235079  0.97348979  0.25989887    -0.13600
H2757       H  0.56186703  0.50399295  0.21947220     0.12500
H2758       H  0.66827816  0.51458553  0.21682706     0.12500
H2759       H  0.64509080  0.96076559  0.25504486     0.12500
H2760       H  0.54540134  0.96230562  0.27201009     0.12500
C2761       C  0.65801896  0.68391761  0.33544330    -0.16700
C2762       C  0.66339782  0.65548390  0.33991045    -0.31900
H2763       H  0.68116710  0.71219761  0.33395820     0.12300
H2764       H  0.63990877  0.62743289  0.34202885     0.12900
C2765       C  0.98842293  0.65263929  0.31893555    -0.16700
C2766       C  0.52311912  0.68414170  0.31991529    -0.31900
H2767       H  0.98475605  0.62513312  0.32150604     0.12300
H2768       H  0.52668264  0.71121941  0.31511208     0.12900
C2769       C  0.55514999  0.73817975  0.38006437    -0.13600
C2770       C  0.56445288  0.71104952  0.38710320     0.08500
C2771       C  0.55808802  0.69579894  0.42180418    -0.13600
C2772       C  0.54316222  0.70766535  0.44871323    -0.13600
C2773       C  0.53062256  0.73224730  0.44073088     0.08500
C2774       C  0.53531350  0.74589701  0.40536627    -0.13600
H2775       H  0.56196769  0.75246379  0.35447116     0.12500
H2776       H  0.56479210  0.67476203  0.42818314     0.12500
H2777       H  0.54065707  0.69676153  0.47569647     0.12500
H2778       H  0.52447268  0.76322201  0.39733899     0.12500
C2779       C  0.67669934  0.70015146  0.43569790    -0.13600
C2780       C  0.69183727  0.73638255  0.44947636     0.08500
C2781       C  0.67288491  0.75513621  0.44140068    -0.13600
C2782       C  0.64649475  0.74241276  0.41325555    -0.13600
C2783       C  0.63390150  0.70742055  0.39695655     0.08500
C2784       C  0.64662531  0.68515945  0.41198766    -0.13600
H2785       H  0.68776485  0.68301800  0.44391236     0.12500
H2786       H  0.67860679  0.77976612  0.45642089     0.12500
H2787       H  0.63609332  0.75989460  0.40443659     0.12500
H2788       H  0.63486488  0.65658407  0.40338294     0.12500
C2789       C  0.51741721  0.60414198  0.26240355    -0.13600
C2790       C  0.53944692  0.64290156  0.26742056     0.08500
C2791       C  0.53323472  0.66551998  0.24424547    -0.13600
C2792       C  0.00416308  0.64858574  0.21949248    -0.13600
C2793       C  0.98143119  0.60974759  0.21477227     0.08500
C2794       C  0.99073052  0.58718893  0.23464098    -0.13600
H2795       H  0.51881761  0.58538282  0.28110134     0.12500
H2796       H  0.54930051  0.69541930  0.24730971     0.12500
H2797       H  0.99862394  0.66749360  0.20489302     0.12500
H2798       H  0.97577755  0.55744196  0.23053864     0.12500
C2799       C  0.65303608  0.64090461  0.23663111    -0.13600
C2800       C  0.63089344  0.60228412  0.22930753     0.08500
C2801       C  0.59899036  0.58264500  0.25053602    -0.13600
C2802       C  0.58937410  0.60069014  0.27650101    -0.13600
C2803       C  0.60791464  0.63945378  0.27830780     0.08500
C2804       C  0.64031390  0.65945095  0.25827923    -0.13600
H2805       H  0.67968179  0.65760054  0.22401565     0.12500
H2806       H  0.58022747  0.55412359  0.24715761     0.12500
H2807       H  0.56712623  0.58418321  0.29492445     0.12500
H2808       H  0.65668883  0.68938574  0.26067378     0.12500
loop_ 
_geom_bond_atom_site_label_1 
_geom_bond_atom_site_label_2 
_geom_bond_distance 
_geom_bond_site_symmetry_2 
_ccdc_geom_bond_type 
C1            C2   1.425       .  A
C1            C6   1.418       .  A
C1          C655   1.473       .  S
C2            C3   1.421       .  A
C2          C697   1.501       .  S
C3            C4   1.427       .  A
C3          C684   1.514       .  S
C4            C5   1.433       .  A
C4          C660   1.489       .  S
C5            C6   1.423       .  A
C5          C664   1.494       .  S
C6          C677   1.528       .  S
C7            C8   1.439       .  A
C7           C12   1.418       .  A
C7          C694   1.520       .  S
C8            C9   1.413       .  A
C8          C646   1.514       .  S
C9           C10   1.414       .  A
C9           H14   1.085       .  S
C10          C11   1.425       .  A
C10         C639   1.498       .  S
C11          C12   1.410       .  A
C11         C626   1.521       .  S
C12          H13   1.078       .  S
C15          C16   1.429       .  A
C15          C20   1.415       .  A
C15         C619   1.500       .  S
C16          C17   1.406       .  A
C16         C687   1.520       .  S
C17          C18   1.416       .  A
C17          H22   1.084       .  S
C18          C19   1.430       .  A
C18         C596   1.500       .  S
C19          C20   1.414       .  A
C19         C606   1.522       .  S
C20          H21   1.084       .  S
C23          C24   1.424       .  A
C23          C28   1.426       .  A
C23         C557   1.478       .  S
C24          C25   1.419       .  A
C24         C649   1.520       .  S
C25          C26   1.423       .  A
C25         C589   1.490       .  S
C26          C27   1.421       .  A
C26         C562   1.492       .  S
C27          C28   1.420       .  A
C27         C566   1.498       .  S
C28         C576   1.506       .  S
C29          C30   1.428       .  A
C29          C34   1.425       .  A
C29         C520   1.473       .  S
C30          C31   1.417       .  A
C30         C616   1.508       .  S
C31          C32   1.418       .  A
C31         C548   1.507       .  S
C32          C33   1.430       .  A
C32         C523   1.486       .  S
C33          C34   1.430       .  A
C33         C541   1.502       .  S
C34         C528   1.526       .  S
C35          C36   1.423       .  A
C35          C40   1.408       .  A
C35         C586   1.492       .  S
C36          C37   1.411       .  A
C36         C551   1.510       .  S
C37          C38   1.416       .  A
C37          H42   1.084       .  S
C38          C39   1.425       .  A
C38         C510   1.497       .  S
C39          C40   1.404       .  A
C39         C500   1.509       .  S
C40          H41   1.085       .  S
C43          C44   1.428   1_565  A
C43         C750   1.422   1_554  A
C43         C471   1.486       .  S
C44          C45   1.423       .  A
C44         C609   1.516       .  S
C45          C46   1.429   1_545  A
C45         C636   1.500       .  S
C46         C749   1.417   1_554  A
C46         C475   1.482   1_554  S
C47          C48   1.425       .  A
C47         C748   1.420       .  A
C47         C483   1.511       .  S
C48         C745   1.425   1_556  A
C48         C490   1.502       .  S
C49          C50   1.426   1_556  A
C49          C54   1.424       .  A
C49         C447   1.475   1_556  S
C50          C51   1.415       .  A
C50         C513   1.499       .  S
C51          C52   1.420       .  A
C51         C629   1.505       .  S
C52          C53   1.425   1_554  A
C52         C443   1.482       .  S
C53          C54   1.418       .  A
C53         C462   1.493       .  S
C54         C452   1.521       .  S
C55          C60   1.422   1_554  A
C55        C1460   1.424   1_455  A
C55         C419   1.474       .  S
C56          C57   1.419       .  A
C56        C1459   1.427       .  A
C56         C503   1.511       .  S
C57        C1462   1.425   1_554  A
C57         C599   1.509       .  S
C58          C59   1.421       .  A
C58        C1461   1.423   1_456  A
C58         C416   1.477       .  S
C59          C60   1.415       .  A
C59         C437   1.501       .  S
C60         C424   1.504       .  S
C61          C62   1.435       .  A
C61          C66   1.427       .  A
C61         C367   1.493       .  S
C62          C63   1.425       .  A
C62         C406   1.506       .  S
C63          C64   1.429       .  A
C63         C396   1.525       .  S
C64          C65   1.423       .  A
C64         C372   1.473       .  S
C65          C66   1.416       .  A
C65         C376   1.512       .  S
C66         C386   1.507       .  S
C67          C68   1.425       .  A
C67          C72   1.407       .  A
C67         C465   1.491       .  S
C68          C69   1.412       .  A
C68         C434   1.510       .  S
C69          C70   1.413       .  A
C69          H74   1.083       .  S
C70          C71   1.423       .  A
C70         C361   1.496       .  S
C71          C72   1.402       .  A
C71         C389   1.502       .  S
C72          H73   1.085       .  S
C75          C76   1.429       .  A
C75          C80   1.412       .  A
C75         C427   1.497       .  S
C76          C77   1.409       .  A
C76         C480   1.520       .  S
C77          C78   1.418       .  A
C77          H82   1.083       .  S
C78          C79   1.429       .  A
C78         C379   1.502       .  S
C79          C80   1.408       .  A
C79         C351   1.515       .  S
C80          H81   1.085       .  S
C83          C84   1.425       .  A
C83          C88   1.427       .  A
C83         C313   1.482       .  S
C84          C85   1.412       .  A
C84         C358   1.494       .  S
C85          C86   1.419       .  A
C85         C318   1.512       .  S
C86          C87   1.424       .  A
C86         C309   1.471       .  S
C87          C88   1.424       .  A
C87         C328   1.508       .  S
C88         C338   1.513       .  S
C89          C90   1.428       .  A
C89          C94   1.430       .  A
C89         C271   1.497       .  S
C90          C91   1.423       .  A
C90         C348   1.511       .  S
C91          C92   1.427       .  A
C91         C280   1.498       .  S
C92          C93   1.418       .  A
C92         C275   1.492       .  S
C93          C94   1.427       .  A
C93         C293   1.508       .  S
C94         C300   1.505       .  S
C95          C96   1.436       .  A
C95         C100   1.417       .  A
C95         C493   1.511       .  S
C96          C97   1.408       .  A
C96         C455   1.514       .  S
C97          C98   1.413       .  A
C97         H102   1.085       .  S
C98          C99   1.426       .  A
C98         C283   1.494       .  S
C99         C100   1.412       .  A
C99         C321   1.522       .  S
C100        H101   1.079       .  S
C103        C104   1.426       .  A
C103        C108   1.413   1_455  A
C103        C667   1.495       .  S
C104        C105   1.406       .  A
C104        C569   1.509       .  S
C105       C1510   1.409   1_455  A
C105        H110   1.083       .  S
C106        C107   1.428       .  A
C106       C1509   1.408       .  A
C106        C303   1.490       .  S
C107       C1512   1.405       .  A
C107        C341   1.510       .  S
C108       C1511   1.406       .  A
C108        H109   1.084       .  S
C111        C112   1.437       .  A
C111        C116   1.418       .  A
C111        C538   1.519       .  S
C112        C113   1.412       .  A
C112        C674   1.512       .  S
C113        C114   1.416       .  A
C113        H118   1.085       .  S
C114        C115   1.433       .  A
C114        C409   1.505       .  S
C115        C116   1.410       .  A
C115        C290   1.525       .  S
C116        H117   1.078       .  S
C119        C120   1.435       .  A
C119        C826   1.411       .  A
C119        C531   1.534       .  S
C120        C823   1.420       .  A
C120        C579   1.503       .  S
C121        C122   1.415       .  A
C121        C822   1.419   1_545  A
C121        H126   1.084       .  S
C122        C123   1.430       .  A
C122        C399   1.526       .  S
C123        C124   1.417   1_545  A
C123        C331   1.503       .  S
C124        C821   1.411       .  A
C124        H827   1.083       .  S
H125        C826   1.083       .  S
O127        C162   1.237       .  S
O127       Mg135   2.146   1_556  S
O127       Mg831   2.113   1_545  S
C128        H167   1.081       .  S
C128        O141   1.237       .  S
C128        O165   1.273       .  A
Mg129       O158   2.122   1_556  S
Mg129       O829   2.119       .  S
Mg129       O173   2.276   1_556  S
Mg129       O169   2.253       .  S
Mg129       O140   2.326       .  S
O130        C151   1.232       .  S
O130       Mg172   2.133   1_556  S
O130       Mg155   2.148       .  S
O131       C1566   1.271       .  A
O131       Mg155   2.304   1_655  S
C132        C420   1.453       .  S
C132        O146   1.278   1_655  A
C132       O1538   1.256       .  A
O133        C863   1.266   1_545  A
O133       Mg135   2.291       .  S
O134       C1536   1.256       .  A
O134       Mg166   2.176       .  S
Mg135      O1545   2.112       .  S
Mg135       O149   2.175       .  S
Mg135       O137   2.243   1_554  S
C136        C476   1.460       .  S
C136        O142   1.272       .  A
C136        O876   1.271   1_545  A
O137       C1548   1.259       .  A
H138        C151   1.081       .  S
C139        H164   1.081       .  S
C139        O153   1.237       .  S
C139       O1558   1.270   1_455  A
O140        C163   1.274       .  A
O141       Mg155   2.129   1_554  S
O141      Mg1539   2.141   1_455  S
O142       Mg172   2.300   1_556  S
C143        C444   1.456       .  S
C143        O156   1.268       .  A
C143        O148   1.267       .  A
C144        C415   1.455       .  S
C144        O171   1.269   1_655  A
C144       O1541   1.266       .  A
Mg145       O153   2.154   1_556  S
Mg145      O1556   2.122   1_455  S
Mg145       O146   2.322   1_556  S
Mg145       O147   2.308       .  S
Mg145       O174   2.257       .  S
O147        C853   1.268       .  A
O148       Mg155   2.276   1_554  S
O149        C168   1.259       .  A
O150        C170   1.255       .  A
O150       Mg166   2.232   1_556  S
C151        O849   1.268       .  A
O152        C163   1.238       .  S
O152       Mg166   2.129   1_556  S
O152      Mg1549   2.124       .  S
O153       Mg874   2.139       .  S
O154       C1543   1.271       .  A
O154       Mg166   2.302       .  S
Mg155       O171   2.249       .  S
O156       Mg172   2.244       .  S
H157        C162   1.081       .  S
O158        C161   1.233       .  S
O158       Mg166   2.119       .  S
H159        C161   1.081       .  S
H160        C163   1.081       .  S
C161        O835   1.267       .  A
C162       O1535   1.272       .  A
O165       Mg172   2.313       .  S
C168        C472   1.457       .  S
C168        O875   1.276   1_545  A
O169        C170   1.263       .  A
C170        C448   1.451       .  S
Mg172       O855   2.138   1_545  S
O173        C870   1.268       .  A
O174        C838   1.272       .  A
O175        C210   1.236       .  S
O175       Mg177   2.124       .  S
O175       Mg183   2.161       .  S
C176        H215   1.081       .  S
C176        O189   1.235       .  S
C176        O213   1.271       .  A
Mg177       O221   2.250       .  S
Mg177       O217   2.261       .  S
Mg177       O188   2.327       .  S
Mg177       O206   2.194       .  S
O178        C199   1.233       .  S
O178       Mg220   2.152       .  S
O178       Mg203   2.170       .  S
O179        C210   1.271       .  A
O179       Mg203   2.307       .  S
C180        C519   1.454   1_545  S
C180        O182   1.256       .  A
C180        O194   1.274       .  A
O181        C209   1.264       .  A
O181       Mg183   2.306       .  S
O182       Mg214   2.175       .  S
Mg183       O189   2.156       .  S
Mg183       O197   2.238       .  S
Mg183       O185   2.263       .  S
C184        C659   1.469       .  S
C184        O222   1.263       .  A
C184        O190   1.280       .  A
O185        C192   1.266       .  A
H186        C199   1.081       .  S
C187        H212   1.081       .  S
C187        O201   1.237       .  S
C187        O202   1.272       .  A
O188        C211   1.276       .  A
O189       Mg203   2.135       .  S
O190       Mg220   2.341       .  S
C191        C561   1.466       .  S
C191        O204   1.274       .  A
C191        O196   1.272       .  A
C192        C524   1.470       .  S
C192        O219   1.273       .  A
Mg193       O200   2.103       .  S
Mg193       O201   2.156       .  S
Mg193       O194   2.307       .  S
Mg193       O195   2.311       .  S
Mg193       O222   2.201       .  S
O195        C199   1.270       .  A
O196       Mg203   2.290       .  S
O197        C216   1.270       .  A
O198        C218   1.253       .  A
O198       Mg214   2.227       .  S
O200        C211   1.240       .  S
O200       Mg214   2.125       .  S
O201       Mg220   2.154       .  S
O202       Mg214   2.305       .  S
Mg203       O219   2.284       .  S
O204       Mg220   2.279       .  S
H205        C210   1.081       .  S
O206       Mg214   2.174       .  S
O206        C209   1.259       .  A
H207        C209   1.081       .  S
H208        C211   1.081       .  S
O213       Mg220   2.313       .  S
C216        C656   1.455       .  S
C216        O221   1.264       .  A
O217        C218   1.261       .  A
C218        C558   1.453   1_545  S
O223        C258   1.237       .  S
O223       Mg225   2.132       .  S
O223       Mg231   2.155       .  S
C224        H263   1.081       .  S
C224        O237   1.238       .  S
C224        O261   1.274       .  A
Mg225       O254   2.151       .  S
Mg225       O269   2.285       .  S
Mg225       O265   2.249       .  S
Mg225       O236   2.311       .  S
O226        C247   1.232       .  S
O226       Mg268   2.116       .  S
O226       Mg251   2.127       .  S
O227        C258   1.271       .  A
O227       Mg251   2.303       .  S
C228        C368   1.474       .  S
C228        O230   1.267       .  A
C228        O242   1.276       .  A
O229        C257   1.267       .  A
O229       Mg231   2.301       .  S
O230       Mg262   2.243       .  S
Mg231       O237   2.113       .  S
Mg231       O245   2.231       .  S
Mg231       O233   2.279       .  S
C232        C276   1.463       .  S
C232        O270   1.275       .  A
C232        O238   1.269       .  A
O233        C240   1.272       .  A
H234        C247   1.081       .  S
C235        H260   1.081       .  S
C235        O249   1.235       .  S
C235        O250   1.271       .  A
O236        C259   1.271       .  A
O237       Mg251   2.127       .  S
O238       Mg268   2.272       .  S
C239        C310   1.458       .  S
C239        O252   1.267       .  A
C239        O244   1.255       .  A
C240        C371   1.460       .  S
C240        O267   1.259       .  A
Mg241       O248   2.163       .  S
Mg241       O249   2.155       .  S
Mg241       O242   2.301       .  S
Mg241       O243   2.302       .  S
Mg241       O270   2.293       .  S
O243        C247   1.267       .  A
O244       Mg251   2.235       .  S
O245        C264   1.266       .  A
O246        C266   1.272       .  A
O246       Mg262   2.281       .  S
O248        C259   1.236       .  S
O248       Mg262   2.148       .  S
O249       Mg268   2.150       .  S
O250       Mg262   2.308       .  S
Mg251       O267   2.211       .  S
O252       Mg268   2.295       .  S
H253        C258   1.081       .  S
O254        C257   1.233       .  S
O254       Mg262   2.145       .  S
H255        C257   1.081       .  S
H256        C259   1.081       .  S
O261       Mg268   2.323       .  S
C264        C272   1.465       .  S
C264        O269   1.272       .  A
O265        C266   1.266       .  A
C266        C314   1.472   1_455  S
C271        H273   1.087       .  S
C271       C1676   1.345       .  D
C272        H274   1.086       .  S
C272       C1675   1.344   1_455  D
C275        H277   1.086       .  S
C275        C276   1.340       .  D
C276        H278   1.085       .  S
C279        C280   1.410       .  A
C279        C284   1.401       .  A
C279        H285   1.081       .  S
C280        C281   1.401       .  A
C281        C282   1.395       .  A
C281        H286   1.082       .  S
C282        C283   1.412       .  A
C282        H287   1.083       .  S
C283        C284   1.402       .  A
C284        H288   1.082       .  S
C289        C290   1.417       .  A
C289        C294   1.402       .  A
C289        H295   1.081       .  S
C290        C291   1.410       .  A
C291        C292   1.407       .  A
C291        H296   1.081       .  S
C292        C293   1.408       .  A
C292        H297   1.082       .  S
C293        C294   1.401       .  A
C294        H298   1.083       .  S
C299        C300   1.409       .  A
C299        C304   1.397       .  A
C299        H305   1.082       .  S
C300        C301   1.402       .  A
C301        C302   1.393       .  A
C301        H306   1.069       .  S
C302        C303   1.397       .  A
C302        H307   1.073       .  S
C303        C304   1.409       .  A
C304       H1712   1.083       .  S
H308       C1708   1.083   1_455  S
C309        H311   1.086   1_545  S
C309       C1012   1.332   1_545  D
C310        H312   1.086       .  S
C310       C1011   1.336       .  D
C313        H315   1.082       .  S
C313       C1718   1.334       .  D
C314        H316   1.087       .  S
C314       C1717   1.342       .  D
C317        C318   1.401       .  A
C317       C1024   1.396   1_545  A
C317        H323   1.082       .  S
C318        C319   1.407       .  A
C319       C1022   1.416   1_545  A
C319        H324   1.083       .  S
C320        C321   1.416       .  A
C320       C1021   1.416       .  A
C320        H325   1.081       .  S
C321        C322   1.413       .  A
C322       C1019   1.394       .  A
C322        H326   1.082       .  S
C327        C328   1.413       .  A
C327        C332   1.408       .  A
C327        H333   1.079       .  S
C328        C329   1.400       .  A
C329        C330   1.395       .  A
C329        H334   1.083       .  S
C330        C331   1.415       .  A
C330        H335   1.083       .  S
C331        C332   1.404       .  A
C332        H336   1.082       .  S
C337        C338   1.408       .  A
C337        C342   1.398       .  A
C337        H343   1.083       .  S
C338        C339   1.405       .  A
C339        C340   1.403       .  A
C339        H344   1.082       .  S
C340        C341   1.409       .  A
C340        H345   1.068       .  S
C341        C342   1.409       .  A
C342        H346   1.083       .  S
C347        C348   1.402       .  A
C347        C352   1.396       .  A
C347        H353   1.083       .  S
C348       C1753   1.412       .  A
C349        C350   1.416   1_655  A
C349       C1752   1.412       .  A
C349        H354   1.083       .  S
C350        C351   1.412       .  A
C350        H355   1.082       .  S
C351       C1756   1.412   1_455  A
C352       C1755   1.413       .  A
C352        H356   1.083       .  S
C357        C362   1.398       .  A
C357       C1762   1.406   1_455  A
C357        H363   1.082       .  S
C358        C359   1.402       .  A
C358       C1761   1.406       .  A
C359        C360   1.394       .  A
C359        H364   1.082       .  S
C360       C1765   1.410       .  A
C360        H365   1.083       .  S
C361        C362   1.404       .  A
C361       C1764   1.411   1_455  A
C362        H366   1.081       .  S
C367        H369   1.079       .  S
C367        C368   1.340       .  D
C368        H370   1.087       .  S
C371        H373   1.087       .  S
C371       C1074   1.333       .  D
C372        H374   1.083   1_545  S
C372       C1073   1.329       .  D
C375        C376   1.402       .  A
C375        C380   1.394       .  A
C375        H381   1.082       .  S
C376       C1079   1.412   1_545  A
C377        C378   1.405       .  A
C377       C1078   1.410       .  A
C377        H382   1.081       .  S
C378        C379   1.406       .  A
C378        H383   1.079       .  S
C379       C1082   1.411       .  A
C380       C1081   1.412   1_545  A
C380        H384   1.083       .  S
C385        C386   1.410       .  A
C385        C390   1.409       .  A
C385        H391   1.083       .  S
C386        C387   1.402       .  A
C387        C388   1.390       .  A
C387        H392   1.083       .  S
C388        C389   1.409       .  A
C388        H393   1.083       .  S
C389        C390   1.409       .  A
C390        H394   1.082       .  S
C395        C396   1.404       .  A
C395        C400   1.399       .  A
C395       H1103   1.083       .  S
C396        C397   1.415       .  A
C397        C398   1.422       .  A
C397        H402   1.083       .  S
C398        C399   1.414       .  A
C398        H403   1.082       .  S
C399        C400   1.414       .  A
C400       H1106   1.083       .  S
H401       C1097   1.083       .  S
H404       C1102   1.082       .  S
C405        C406   1.408       .  A
C405        C410   1.400       .  A
C405        H411   1.080       .  S
C406        C407   1.404       .  A
C407        C408   1.401       .  A
C407        H412   1.083       .  S
C408        C409   1.413       .  A
C408        H413   1.083       .  S
C409        C410   1.404       .  A
C410        H414   1.082       .  S
C415       H1821   1.085       .  S
C415        C416   1.337   1_655  D
C416        H418   1.087   1_556  S
H417       C1819   1.086       .  S
C419        H421   1.084       .  S
C419        C420   1.324   1_455  D
C420       H1826   1.088       .  S
H422       C1824   1.088       .  S
C423        C424   1.410       .  A
C423        C428   1.400       .  A
C423        H429   1.080       .  S
C424        C425   1.403       .  A
C425        C426   1.395       .  A
C425       H1834   1.082       .  S
C426        C427   1.410       .  A
C426        H431   1.083       .  S
C427        C428   1.403       .  A
C428        H432   1.082       .  S
H430       C1829   1.082       .  S
C433        C434   1.410       .  A
C433        C438   1.392       .  A
C433        H439   1.082       .  S
C434        C435   1.413       .  A
C435        C436   1.412       .  A
C435        H440   1.082       .  S
C436        C437   1.407       .  A
C436        H441   1.083       .  S
C437        C438   1.399       .  A
C438       H1846   1.083   1_455  S
H442       C1842   1.083       .  S
C443        H445   1.086   1_554  S
C443        C444   1.340       .  D
C444        H446   1.085       .  S
C447        H449   1.086       .  S
C447        C448   1.333   1_554  D
C448        H450   1.085       .  S
C451        C452   1.405       .  A
C451        C456   1.398       .  A
C451        H457   1.080       .  S
C452        C453   1.409       .  A
C453        C454   1.412       .  A
C453        H458   1.082       .  S
C454        C455   1.414       .  A
C454        H459   1.076       .  S
C455        C456   1.407       .  A
C456        H460   1.084       .  S
C461        C462   1.399       .  A
C461        C466   1.393       .  A
C461        H467   1.083       .  S
C462        C463   1.409       .  A
C463        C464   1.399       .  A
C463        H468   1.079       .  S
C464        C465   1.402       .  A
C464        H469   1.082       .  S
C465        C466   1.412       .  A
C466        H470   1.083       .  S
C471        H473   1.087       .  S
C471        C472   1.333   1_565  D
C472       H1176   1.086       .  S
H474       C1174   1.087       .  S
C475       H1179   1.087   1_556  S
C475        C476   1.339   1_565  D
C476        H478   1.086       .  S
H477       C1177   1.087   1_554  S
C479        C480   1.408       .  A
C479        C484   1.407       .  A
C479        H485   1.081       .  S
C480        C481   1.415       .  A
C481        C482   1.404       .  A
C481        H486   1.082       .  S
C482        C483   1.403       .  A
C482       H1189   1.083       .  S
C483        C484   1.409       .  A
C484        H488   1.079       .  S
H487       C1184   1.083   1_545  S
C489        C490   1.406       .  A
C489        C494   1.402       .  A
C489       H1197   1.082       .  S
C490        C491   1.397       .  A
C491        C492   1.393       .  A
C491        H496   1.074       .  S
C492        C493   1.400       .  A
C492        H497   1.052       .  S
C493        C494   1.417       .  A
C494        H498   1.083       .  S
H495       C1191   1.083   1_545  S
C499        C500   1.410       .  A
C499        C504   1.414       .  A
C499        H505   1.082       .  S
C500        C501   1.411       .  A
C501        C502   1.391       .  A
C501       H1910   1.083       .  S
C502        C503   1.401       .  A
C502       H1911   1.083       .  S
C503        C504   1.412       .  A
C504        H508   1.083       .  S
H506       C1905   1.083       .  S
H507       C1906   1.083   1_455  S
C509        C510   1.404       .  A
C509        C514   1.402       .  A
C509        H515   1.082       .  S
C510        C511   1.412       .  A
C511        C512   1.395       .  A
C511        H516   1.083       .  S
C512        C513   1.400       .  A
C512        H517   1.082       .  S
C513        C514   1.409       .  A
C514        H518   1.079       .  S
C519        H521   1.088       .  S
C519       C1222   1.327       .  D
C520        H522   1.085       .  S
C520       C1221   1.328       .  D
C523        H525   1.087       .  S
C523        C524   1.337       .  D
C524        H526   1.087       .  S
C527        C528   1.404       .  A
C527        C532   1.406       .  A
C527       H1235   1.083       .  S
C528        C529   1.414       .  A
C529        C530   1.415       .  A
C529        H534   1.079       .  S
C530        C531   1.411       .  A
C530        H535   1.080       .  S
C531        C532   1.420       .  A
C532       H1238   1.082       .  S
H533       C1229   1.083       .  S
H536       C1234   1.082   1_545  S
C537        C538   1.418       .  A
C537        C542   1.399       .  A
C537        H543   1.082       .  S
C538        C539   1.404       .  A
C539        C540   1.398       .  A
C539        H544   1.059       .  S
C540        C541   1.399       .  A
C540        H545   1.074       .  S
C541        C542   1.404       .  A
C542        H546   1.083       .  S
C547        C548   1.408       .  A
C547        C552   1.414       .  A
C547        H553   1.083       .  S
C548        C549   1.403       .  A
C549        C550   1.394       .  A
C549        H554   1.083       .  S
C550        C551   1.409       .  A
C550        H555   1.083       .  S
C551        C552   1.413       .  A
C552        H556   1.082       .  S
C557        H559   1.086       .  S
C557       C1260   1.336       .  D
C558        H560   1.085       .  S
C558       C1259   1.335       .  D
C561        H563   1.085       .  S
C561       C1966   1.342       .  D
C562        H564   1.086       .  S
C562       C1965   1.342   1_455  D
C565        C566   1.399       .  A
C565        C570   1.391       .  A
C565        H571   1.083       .  S
C566        C567   1.407       .  A
C567        C568   1.412       .  A
C567        H572   1.083       .  S
C568        C569   1.414       .  A
C568       H1977   1.082       .  S
C569        C570   1.409       .  A
C570        H574   1.082   1_455  S
H573       C1972   1.082       .  S
C575        C576   1.401       .  A
C575        C580   1.397       .  A
C575        H581   1.082       .  S
C576        C577   1.411       .  A
C577        C578   1.404       .  A
C577        H582   1.078       .  S
C578        C579   1.403       .  A
C578       H1285   1.082       .  S
C579        C580   1.414       .  A
C580        H584   1.083       .  S
H583       C1280   1.082       .  S
C585        C586   1.404       .  A
C585        C590   1.402       .  A
C585        H591   1.082       .  S
C586       C1991   1.411       .  A
C587        C588   1.390       .  A
C587       C1990   1.410   1_455  A
C587        H592   1.083       .  S
C588        C589   1.398       .  A
C588        H593   1.083       .  S
C589       C1994   1.409   1_455  A
C590       C1993   1.409       .  A
C590        H594   1.080       .  S
C595        C596   1.412       .  A
C595        C600   1.393       .  A
C595       H2005   1.084       .  S
C596        C597   1.405       .  A
C597        C598   1.410       .  A
C597        H602   1.082       .  S
C598        C599   1.414       .  A
C598        H603   1.080       .  S
C599        C600   1.401       .  A
C600       H2008   1.082       .  S
H601       C1999   1.084       .  S
H604       C2004   1.082       .  S
C605        C606   1.413       .  A
C605        C610   1.418       .  A
C605        H611   1.081       .  S
C606        C607   1.415       .  A
C607        C608   1.398       .  A
C607        H612   1.082       .  S
C608        C609   1.403       .  A
C608       H1315   1.083   1_545  S
C609        C610   1.413       .  A
C610        H614   1.083       .  S
H613       C1310   1.083       .  S
C615        C616   1.404       .  A
C615        C620   1.399       .  A
C615        H621   1.082       .  S
C616       C1319   1.410       .  A
C617        C618   1.401       .  A
C617       C1318   1.411   1_545  A
C617        H622   1.081       .  S
C618        C619   1.403       .  A
C618        H623   1.081       .  S
C619       C1322   1.411   1_545  A
C620       C1321   1.412       .  A
C620        H624   1.083       .  S
C625        C626   1.417       .  A
C625        C630   1.416       .  A
C625        H631   1.081       .  S
C626        C627   1.412       .  A
C627        C628   1.391       .  A
C627        H632   1.081       .  S
C628        C629   1.398       .  A
C628        H633   1.083       .  S
C629        C630   1.408       .  A
C630        H634   1.083       .  S
C635        C636   1.409       .  A
C635        C640   1.401       .  A
C635        H641   1.080       .  S
C636        C637   1.402       .  A
C637        C638   1.397       .  A
C637        H642   1.082       .  S
C638        C639   1.412       .  A
C638        H643   1.083       .  S
C639        C640   1.403       .  A
C640        H644   1.082       .  S
C645        C646   1.413   1_565  A
C645       C1352   1.414       .  A
C645        H651   1.080   1_565  S
C646        C647   1.408       .  A
C647       C1350   1.397   1_545  A
C647        H652   1.083       .  S
C648        C649   1.404       .  A
C648       C1349   1.398       .  A
C648        H653   1.080       .  S
C649        C650   1.409       .  A
C650       C1347   1.413       .  A
C650        H654   1.082       .  S
C655        H657   1.087       .  S
C655        C656   1.333       .  D
C656        H658   1.088       .  S
C659        H661   1.087       .  S
C659       C2064   1.333       .  D
C660        H662   1.082       .  S
C660       C2063   1.333   1_455  D
C663        C664   1.407       .  A
C663        C668   1.397       .  A
C663        H669   1.080       .  S
C664        C665   1.401       .  A
C665        C666   1.393       .  A
C665        H670   1.083       .  S
C666        C667   1.411       .  A
C666        H671   1.083       .  S
C667        C668   1.404       .  A
C668        H672   1.082       .  S
C673        C674   1.405       .  A
C673        C678   1.400       .  A
C673        H679   1.083       .  S
C674        C675   1.413       .  A
C675        C676   1.414       .  A
C675        H680   1.081       .  S
C676        C677   1.410       .  A
C676        H681   1.082       .  S
C677        C678   1.411       .  A
C678        H682   1.082       .  S
C683        C684   1.411       .  A
C683       C2092   1.408   1_455  A
C683        H689   1.077       .  S
C684        C685   1.403       .  A
C685       C2090   1.401       .  A
C685        H690   1.083       .  S
C686        C687   1.416       .  A
C686       C2089   1.402       .  A
C686        H691   1.082       .  S
C687        C688   1.407       .  A
C688       C2087   1.408       .  A
C688        H692   1.081       .  S
C693        C694   1.419       .  A
C693        C698   1.398       .  A
C693        H699   1.082       .  S
C694        C695   1.405       .  A
C695        C696   1.399       .  A
C695        H700   1.063       .  S
C696        C697   1.400       .  A
C696        H701   1.076       .  S
C697        C698   1.402       .  A
C698        H702   1.083       .  S
C703        C704   1.422       .  A
C703        C708   1.414       .  A
C703       C1357   1.475       .  S
C704        C705   1.420       .  A
C704       C1399   1.493       .  S
C705        C706   1.427       .  A
C705       C1386   1.516       .  S
C706        C707   1.432       .  A
C706       C1362   1.488       .  S
C707        C708   1.421       .  A
C707       C1366   1.492       .  S
C708       C1379   1.523       .  S
C709        C710   1.439       .  A
C709        C714   1.417       .  A
C709       C1396   1.521       .  S
C710        C711   1.413       .  A
C710       C1348   1.512       .  S
C711        C712   1.414       .  A
C711        H716   1.085       .  S
C712        C713   1.423       .  A
C712       C1341   1.496       .  S
C713        C714   1.407       .  A
C713       C1328   1.518       .  S
C714        H715   1.077       .  S
C717        C718   1.432       .  A
C717        C722   1.419       .  A
C717       C1321   1.504       .  S
C718        C719   1.405       .  A
C718       C1389   1.518       .  S
C719        C720   1.411       .  A
C719        H724   1.084       .  S
C720        C721   1.425       .  A
C720       C1298   1.494       .  S
C721        C722   1.415       .  A
C721       C1308   1.517       .  S
C722        H723   1.083       .  S
C725        C726   1.425       .  A
C725        C730   1.425       .  A
C725       C1259   1.476       .  S
C726        C727   1.419       .  A
C726       C1351   1.520       .  S
C727        C728   1.424       .  A
C727       C1291   1.492       .  S
C728        C729   1.423       .  A
C728       C1264   1.492       .  S
C729        C730   1.421       .  A
C729       C1268   1.498       .  S
C730       C1278   1.509       .  S
C731        C732   1.425       .  A
C731        C736   1.423       .  A
C731       C1222   1.471       .  S
C732        C733   1.415       .  A
C732       C1318   1.506       .  S
C733        C734   1.418       .  A
C733       C1250   1.504       .  S
C734        C735   1.431       .  A
C734       C1225   1.484       .  S
C735        C736   1.429       .  A
C735       C1243   1.505       .  S
C736       C1230   1.520       .  S
C737        C738   1.423       .  A
C737        C742   1.409       .  A
C737       C1288   1.495       .  S
C738        C739   1.410       .  A
C738       C1253   1.507       .  S
C739        C740   1.413       .  A
C739        H744   1.084       .  S
C740        C741   1.425       .  A
C740       C1212   1.498       .  S
C741        C742   1.406       .  A
C741       C1202   1.508       .  S
C742        H743   1.085       .  S
C745        C746   1.416       .  A
C745       C1173   1.477       .  S
C746        C747   1.418       .  A
C746       C1311   1.510       .  S
C747        C748   1.428   1_554  A
C747       C1338   1.496       .  S
C748       C1177   1.483       .  S
C749        C750   1.420       .  A
C749       C1185   1.509       .  S
C750       C1192   1.500       .  S
C751        C752   1.426       .  A
C751        C756   1.423   1_554  A
C751       C1149   1.479       .  S
C752        C753   1.415       .  A
C752       C1215   1.496       .  S
C753        C754   1.418       .  A
C753       C1331   1.503       .  S
C754        C755   1.424   1_554  A
C754       C1145   1.485       .  S
C755        C756   1.419       .  A
C755       C1164   1.490       .  S
C756       C1154   1.519       .  S
C757       C2162   1.424   1_455  A
C757        C762   1.427   1_554  A
C757       C1121   1.479       .  S
C758       C2161   1.424       .  A
C758        C759   1.419       .  A
C758       C1205   1.511       .  S
C759       C2164   1.425   1_554  A
C759       C1301   1.500       .  S
C760       C2163   1.422   1_456  A
C760        C761   1.420       .  A
C760       C1118   1.476       .  S
C761        C762   1.418       .  A
C761       C1139   1.507       .  S
C762       C1126   1.503       .  S
C763        C764   1.436       .  A
C763        C768   1.421       .  A
C763       C1069   1.491       .  S
C764        C765   1.431       .  A
C764       C1108   1.505       .  S
C765        C766   1.428       .  A
C765       C1098   1.524       .  S
C766        C767   1.422       .  A
C766       C1074   1.473       .  S
C767        C768   1.411       .  A
C767       C1078   1.504       .  S
C768       C1088   1.504       .  S
C769        C770   1.426       .  A
C769        C774   1.412       .  A
C769       C1167   1.489       .  S
C770        C771   1.408       .  A
C770       C1136   1.515       .  S
C771        C772   1.412       .  A
C771        H776   1.084       .  S
C772        C773   1.424       .  A
C772       C1063   1.490       .  S
C773        C774   1.404       .  A
C773       C1091   1.510       .  S
C774        H775   1.084       .  S
C777        C778   1.428       .  A
C777        C782   1.407       .  A
C777       C1129   1.497       .  S
C778        C779   1.410       .  A
C778       C1182   1.517       .  S
C779        C780   1.421       .  A
C779        H784   1.083       .  S
C780        C781   1.432       .  A
C780       C1081   1.507       .  S
C781        C782   1.409       .  A
C781       C1053   1.514       .  S
C782        H783   1.085       .  S
C785        C786   1.427       .  A
C785        C790   1.429       .  A
C785       C1015   1.487       .  S
C786        C787   1.415       .  A
C786       C1060   1.499       .  S
C787        C788   1.421       .  A
C787       C1020   1.508       .  S
C788        C789   1.426       .  A
C788       C1011   1.483       .  S
C789        C790   1.428       .  A
C789       C1030   1.507       .  S
C790       C1040   1.515       .  S
C791        C792   1.424       .  A
C791        C796   1.429       .  A
C791        C973   1.488       .  S
C792        C793   1.418       .  A
C792       C1050   1.511       .  S
C793        C794   1.423       .  A
C793        C982   1.491       .  S
C794        C795   1.415       .  A
C794        C977   1.488       .  S
C795        C796   1.423       .  A
C795        C995   1.503       .  S
C796       C1002   1.505       .  S
C797        C798   1.430       .  A
C797        C802   1.415       .  A
C797       C1195   1.495       .  S
C798        C799   1.403       .  A
C798       C1157   1.516       .  S
C799        C800   1.414       .  A
C799        H804   1.085       .  S
C800        C801   1.427       .  A
C800        C985   1.487       .  S
C801        C802   1.411       .  A
C801       C1023   1.523       .  S
C802        H803   1.081       .  S
C805        C806   1.425       .  A
C805        C810   1.411   1_455  A
C805       C1369   1.492       .  S
C806        C807   1.406       .  A
C806       C1271   1.507       .  S
C807       C2212   1.410   1_455  A
C807        H812   1.083       .  S
C808       C2211   1.409       .  A
C808        C809   1.427       .  A
C808       C1005   1.491       .  S
C809       C2214   1.406       .  A
C809       C1043   1.511       .  S
C810       C2213   1.402       .  A
C810        H811   1.084       .  S
C813        C814   1.433       .  A
C813        C818   1.415       .  A
C813       C1240   1.516       .  S
C814        C815   1.410       .  A
C814       C1376   1.507       .  S
C815        C816   1.414       .  A
C815        H820   1.085       .  S
C816        C817   1.432       .  A
C816       C1111   1.499       .  S
C817        C818   1.412       .  A
C817        C992   1.526       .  S
C818        H819   1.076       .  S
C821        C822   1.434       .  A
C821       C1233   1.531       .  S
C822       C1281   1.504       .  S
C823        C824   1.414       .  A
C823        H828   1.084       .  S
C824        C825   1.430       .  A
C824       C1101   1.530       .  S
C825        C826   1.420       .  A
C825       C1033   1.501       .  S
O829        C864   1.235       .  S
O829       Mg837   2.144   1_556  S
C830        H869   1.081       .  S
C830        O843   1.238       .  S
C830        O867   1.273       .  A
Mg831       O860   2.138   1_556  S
Mg831       O875   2.317   1_556  S
Mg831       O871   2.273       .  S
Mg831       O842   2.330       .  S
O832        C853   1.232       .  S
O832       Mg874   2.128   1_556  S
O832       Mg857   2.142       .  S
O833       C2268   1.271       .  A
O833       Mg857   2.303   1_655  S
C834       C1122   1.458       .  S
C834       O2240   1.257       .  A
C834        O848   1.276   1_655  A
O835       Mg837   2.296       .  S
O836       C2238   1.259       .  A
O836       Mg868   2.198       .  S
Mg837      O2247   2.140       .  S
Mg837       O851   2.238       .  S
Mg837       O839   2.267   1_554  S
C838       C1178   1.461       .  S
C838        O844   1.272       .  A
O839       C2250   1.267       .  A
H840        C853   1.081       .  S
C841        H866   1.081       .  S
C841        O855   1.236       .  S
C841       O2260   1.270   1_455  A
O842        C865   1.274       .  A
O843      Mg2241   2.144   1_455  S
O843       Mg857   2.132   1_554  S
O844       Mg874   2.296   1_556  S
C845       C1146   1.459       .  S
C845        O858   1.268       .  A
C845        O850   1.267       .  A
C846       C1117   1.454       .  S
C846       O2243   1.265       .  A
C846        O873   1.268   1_655  A
Mg847      O2258   2.120   1_455  S
Mg847       O855   2.152   1_556  S
Mg847       O848   2.318   1_556  S
Mg847       O849   2.306   1_565  S
Mg847       O876   2.245       .  S
O850       Mg857   2.277   1_554  S
O851        C870   1.270       .  A
O852        C872   1.258       .  A
O852       Mg868   2.237   1_556  S
O854        C865   1.236       .  S
O854      Mg2251   2.143       .  S
O854       Mg868   2.135   1_556  S
O856       C2245   1.272       .  A
O856       Mg868   2.302       .  S
Mg857       O873   2.241       .  S
O858       Mg874   2.251       .  S
H859        C864   1.081       .  S
O860        C863   1.233       .  S
O860       Mg868   2.131       .  S
H861        C863   1.081       .  S
H862        C865   1.081       .  S
C864       O2237   1.269       .  A
O867       Mg874   2.314       .  S
C870       C1174   1.462       .  S
O871        C872   1.268       .  A
C872       C1150   1.453       .  S
O877        C912   1.236       .  S
O877       Mg879   2.124       .  S
O877       Mg885   2.160       .  S
C878        H917   1.081       .  S
C878        O891   1.235       .  S
C878        O915   1.272       .  A
Mg879       O923   2.254       .  S
Mg879       O919   2.262       .  S
Mg879       O890   2.326       .  S
Mg879       O908   2.194       .  S
O880        C901   1.233       .  S
O880       Mg922   2.148       .  S
O880       Mg905   2.168       .  S
O881        C912   1.271       .  A
O881       Mg905   2.305       .  S
C882       C1221   1.456       .  S
C882        O884   1.257       .  A
C882        O896   1.274       .  A
O883        C911   1.264       .  A
O883       Mg885   2.307       .  S
O884       Mg916   2.181       .  S
Mg885       O891   2.153       .  S
Mg885       O899   2.236       .  S
Mg885       O887   2.260       .  S
C886       C1361   1.466       .  S
C886        O924   1.262       .  A
C886        O892   1.280       .  A
O887        C894   1.265       .  A
H888        C901   1.081       .  S
C889        H914   1.081       .  S
C889        O903   1.236       .  S
C889        O904   1.271       .  A
O890        C913   1.276       .  A
O891       Mg905   2.135       .  S
O892       Mg922   2.339       .  S
C893       C1263   1.465       .  S
C893        O906   1.274       .  A
C893        O898   1.270       .  A
C894       C1226   1.468       .  S
C894        O921   1.273       .  A
Mg895       O902   2.103       .  S
Mg895       O903   2.160       .  S
Mg895       O896   2.310       .  S
Mg895       O897   2.311       .  S
Mg895       O924   2.197       .  S
O897        C901   1.269       .  A
O898       Mg905   2.285       .  S
O899        C918   1.270       .  A
O900        C920   1.254       .  A
O900       Mg916   2.231       .  S
O902        C913   1.240       .  S
O902       Mg916   2.128       .  S
O903       Mg922   2.154       .  S
O904       Mg916   2.303       .  S
Mg905       O921   2.281       .  S
O906       Mg922   2.279       .  S
H907        C912   1.081       .  S
O908       Mg916   2.178       .  S
O908        C911   1.259       .  A
H909        C911   1.081       .  S
H910        C913   1.081       .  S
O915       Mg922   2.315       .  S
C918       C1358   1.455       .  S
C918        O923   1.264       .  A
O919        C920   1.262       .  A
C920       C1260   1.454       .  S
O925        C960   1.236       .  S
O925       Mg927   2.135       .  S
O925       Mg933   2.154       .  S
C926        H965   1.081       .  S
C926        O939   1.238       .  S
C926        O963   1.274       .  A
Mg927       O956   2.161       .  S
Mg927       O971   2.311       .  S
Mg927       O967   2.231       .  S
Mg927       O938   2.308       .  S
O928        C949   1.234       .  S
O928       Mg970   2.115       .  S
O928       Mg953   2.115       .  S
O929        C960   1.270       .  A
O929       Mg953   2.300       .  S
C930       C1070   1.462       .  S
C930        O932   1.275       .  A
C930        O944   1.266       .  A
O931        C959   1.269       .  A
O931       Mg933   2.306       .  S
O932       Mg964   2.302       .  S
Mg933       O939   2.118       .  S
Mg933       O947   2.238       .  S
Mg933       O935   2.298       .  S
C934        C978   1.460       .  S
C934        O972   1.270       .  A
C934        O940   1.266       .  A
O935        C942   1.274       .  A
H936        C949   1.081       .  S
C937        H962   1.081       .  S
C937        O951   1.235       .  S
C937        O952   1.270       .  A
O938        C961   1.271       .  A
O939       Mg953   2.134       .  S
O940       Mg970   2.272       .  S
C941       C1012   1.449       .  S
C941        O954   1.263       .  A
C941        O946   1.256       .  A
C942       C1073   1.456   1_565  S
C942        O969   1.258       .  A
Mg943       O950   2.157       .  S
Mg943       O951   2.131       .  S
Mg943       O944   2.255       .  S
Mg943       O945   2.300       .  S
Mg943       O972   2.272       .  S
O945        C949   1.268       .  A
O946       Mg953   2.240       .  S
O947        C966   1.267       .  A
O948        C968   1.277       .  A
O948       Mg964   2.299       .  S
O950        C961   1.235       .  S
O950       Mg964   2.145       .  S
O951       Mg970   2.123       .  S
O952       Mg964   2.308       .  S
Mg953       O969   2.188       .  S
O954       Mg970   2.248       .  S
H955        C960   1.081       .  S
O956        C959   1.233       .  S
O956       Mg964   2.170       .  S
H957        C959   1.081       .  S
H958        C961   1.081       .  S
O963       Mg970   2.320       .  S
C966        C974   1.473       .  S
C966        O971   1.275       .  A
O967        C968   1.266       .  A
C968       C1016   1.468   1_455  S
C973        H975   1.087       .  S
C973       C2378   1.343       .  D
C974        H976   1.085       .  S
C974       C2377   1.345   1_455  D
C977        H979   1.086       .  S
C977        C978   1.340       .  D
C978        H980   1.086       .  S
C981        C982   1.408       .  A
C981        C986   1.397       .  A
C981        H987   1.081       .  S
C982        C983   1.400       .  A
C983        C984   1.391       .  A
C983        H988   1.082       .  S
C984        C985   1.409       .  A
C984        H989   1.083       .  S
C985        C986   1.402       .  A
C986        H990   1.083       .  S
C991        C992   1.419       .  A
C991        C996   1.399       .  A
C991        H997   1.080       .  S
C992        C993   1.411       .  A
C993        C994   1.406       .  A
C993        H998   1.078       .  S
C994        C995   1.408       .  A
C994        H999   1.082       .  S
C995        C996   1.398       .  A
C996       H1000   1.084       .  S
C1001      C1002   1.408       .  A
C1001      C1006   1.396       .  A
C1001      H1007   1.082       .  S
C1002      C1003   1.403       .  A
C1003      C1004   1.394       .  A
C1003      H1008   1.071       .  S
C1004      C1005   1.398       .  A
C1004      H1009   1.073       .  S
C1005      C1006   1.409       .  A
C1006      H2414   1.083       .  S
H1010      C2410   1.083   1_455  S
C1011      H1013   1.086       .  S
C1012      H1014   1.085   1_565  S
C1015      H1017   1.081       .  S
C1015      C2420   1.340       .  D
C1016      H1018   1.087       .  S
C1016      C2419   1.337       .  D
C1019      C1020   1.399       .  A
C1019      H1025   1.083       .  S
C1020      C1021   1.408       .  A
C1021      H1026   1.083       .  S
C1022      C1023   1.417       .  A
C1022      H1027   1.081       .  S
C1023      C1024   1.412       .  A
C1024      H1028   1.082       .  S
C1029      C1030   1.414       .  A
C1029      C1034   1.409       .  A
C1029      H1035   1.079       .  S
C1030      C1031   1.400       .  A
C1031      C1032   1.394       .  A
C1031      H1036   1.083       .  S
C1032      C1033   1.413       .  A
C1032      H1037   1.084       .  S
C1033      C1034   1.404       .  A
C1034      H1038   1.082       .  S
C1039      C1040   1.408       .  A
C1039      C1044   1.399       .  A
C1039      H1045   1.083       .  S
C1040      C1041   1.406       .  A
C1041      C1042   1.406       .  A
C1041      H1046   1.082       .  S
C1042      C1043   1.410       .  A
C1042      H1047   1.070       .  S
C1043      C1044   1.409       .  A
C1044      H1048   1.083       .  S
C1049      C1050   1.402       .  A
C1049      C1054   1.395       .  A
C1049      H1055   1.083       .  S
C1050      C2455   1.412       .  A
C1051      C2454   1.412       .  A
C1051      C1052   1.416   1_655  A
C1051      H1056   1.083       .  S
C1052      C1053   1.412       .  A
C1052      H1057   1.082       .  S
C1053      C2458   1.413   1_455  A
C1054      C2457   1.412       .  A
C1054      H1058   1.083       .  S
C1059      C2464   1.405   1_455  A
C1059      C1064   1.395       .  A
C1059      H1065   1.082       .  S
C1060      C2463   1.407       .  A
C1060      C1061   1.401       .  A
C1061      C1062   1.396       .  A
C1061      H1066   1.082       .  S
C1062      C2467   1.411       .  A
C1062      H1067   1.083       .  S
C1063      C2466   1.409   1_455  A
C1063      C1064   1.403       .  A
C1064      H1068   1.082       .  S
C1069      H1071   1.086       .  S
C1069      C1070   1.340       .  D
C1070      H1072   1.084       .  S
C1073      H1075   1.088       .  S
C1074      H1076   1.083       .  S
C1077      C1078   1.400       .  A
C1077      C1082   1.392       .  A
C1077      H1083   1.082       .  S
C1079      C1080   1.407       .  A
C1079      H1084   1.081       .  S
C1080      C1081   1.407       .  A
C1080      H1085   1.080       .  S
C1082      H1086   1.083       .  S
C1087      C1088   1.408       .  A
C1087      C1092   1.412       .  A
C1087      H1093   1.083       .  S
C1088      C1089   1.400       .  A
C1089      C1090   1.393       .  A
C1089      H1094   1.082       .  S
C1090      C1091   1.409       .  A
C1090      H1095   1.083       .  S
C1091      C1092   1.413       .  A
C1092      H1096   1.082       .  S
C1097      C1098   1.404       .  A
C1097      C1102   1.400       .  A
C1098      C1099   1.415       .  A
C1099      C1100   1.424       .  A
C1099      H1104   1.082       .  S
C1100      C1101   1.416       .  A
C1100      H1105   1.082       .  S
C1101      C1102   1.415       .  A
C1107      C1108   1.412       .  A
C1107      C1112   1.403       .  A
C1107      H1113   1.080       .  S
C1108      C1109   1.403       .  A
C1109      C1110   1.400       .  A
C1109      H1114   1.082       .  S
C1110      C1111   1.411       .  A
C1110      H1115   1.083       .  S
C1111      C1112   1.404       .  A
C1112      H1116   1.083       .  S
C1117      H2523   1.086       .  S
C1117      C1118   1.336   1_655  D
C1118      H1120   1.087   1_556  S
H1119      C2521   1.085       .  S
C1121      H1123   1.083       .  S
C1121      C1122   1.327   1_455  D
C1122      H2528   1.088       .  S
H1124      C2526   1.087       .  S
C1125      C1126   1.409       .  A
C1125      C1130   1.398       .  A
C1125      H1131   1.080       .  S
C1126      C1127   1.403       .  A
C1127      C1128   1.397       .  A
C1127      H2536   1.082       .  S
C1128      C1129   1.411       .  A
C1128      H1133   1.083       .  S
C1129      C1130   1.402       .  A
C1130      H1134   1.083       .  S
H1132      C2531   1.082       .  S
C1135      C1136   1.411       .  A
C1135      C1140   1.395       .  A
C1135      H1141   1.083       .  S
C1136      C1137   1.414       .  A
C1137      C1138   1.414       .  A
C1137      H1142   1.082       .  S
C1138      C1139   1.408       .  A
C1138      H1143   1.083       .  S
C1139      C1140   1.401       .  A
C1140      H2548   1.083   1_455  S
H1144      C2544   1.082       .  S
C1145      H1147   1.086   1_554  S
C1145      C1146   1.341       .  D
C1146      H1148   1.085       .  S
C1149      H1151   1.086       .  S
C1149      C1150   1.332   1_554  D
C1150      H1152   1.084       .  S
C1153      C1154   1.406       .  A
C1153      C1158   1.399       .  A
C1153      H1159   1.080       .  S
C1154      C1155   1.407       .  A
C1155      C1156   1.412       .  A
C1155      H1160   1.082       .  S
C1156      C1157   1.414       .  A
C1156      H1161   1.075       .  S
C1157      C1158   1.407       .  A
C1158      H1162   1.083       .  S
C1163      C1164   1.398       .  A
C1163      C1168   1.393       .  A
C1163      H1169   1.083       .  S
C1164      C1165   1.408       .  A
C1165      C1166   1.398       .  A
C1165      H1170   1.080       .  S
C1166      C1167   1.401       .  A
C1166      H1171   1.082       .  S
C1167      C1168   1.412       .  A
C1168      H1172   1.083       .  S
C1173      H1175   1.087       .  S
C1173      C1174   1.337       .  D
C1177      C1178   1.338       .  D
C1178      H1180   1.086       .  S
C1181      C1182   1.406       .  A
C1181      C1186   1.404       .  A
C1181      H1187   1.081       .  S
C1182      C1183   1.414       .  A
C1183      C1184   1.405       .  A
C1183      H1188   1.082       .  S
C1184      C1185   1.404       .  A
C1185      C1186   1.406       .  A
C1186      H1190   1.080       .  S
C1191      C1192   1.408       .  A
C1191      C1196   1.400       .  A
C1192      C1193   1.398       .  A
C1193      C1194   1.390       .  A
C1193      H1198   1.071       .  S
C1194      C1195   1.396       .  A
C1194      H1199   1.067       .  S
C1195      C1196   1.411       .  A
C1196      H1200   1.083       .  S
C1201      C1202   1.411       .  A
C1201      C1206   1.415       .  A
C1201      H1207   1.082       .  S
C1202      C1203   1.410       .  A
C1203      C1204   1.390       .  A
C1203      H2612   1.083       .  S
C1204      C1205   1.401       .  A
C1204      H2613   1.083       .  S
C1205      C1206   1.412       .  A
C1206      H1210   1.083       .  S
H1208      C2607   1.083       .  S
H1209      C2608   1.083   1_455  S
C1211      C1212   1.403       .  A
C1211      C1216   1.402       .  A
C1211      H1217   1.081       .  S
C1212      C1213   1.414       .  A
C1213      C1214   1.396       .  A
C1213      H1218   1.083       .  S
C1214      C1215   1.399       .  A
C1214      H1219   1.083       .  S
C1215      C1216   1.408       .  A
C1216      H1220   1.079       .  S
C1221      H1223   1.088       .  S
C1222      H1224   1.085   1_565  S
C1225      H1227   1.087       .  S
C1225      C1226   1.336       .  D
C1226      H1228   1.087       .  S
C1229      C1230   1.402       .  A
C1229      C1234   1.402       .  A
C1230      C1231   1.414       .  A
C1231      C1232   1.414       .  A
C1231      H1236   1.080       .  S
C1232      C1233   1.410       .  A
C1232      H1237   1.079       .  S
C1233      C1234   1.419       .  A
C1239      C1240   1.416       .  A
C1239      C1244   1.399       .  A
C1239      H1245   1.082       .  S
C1240      C1241   1.403       .  A
C1241      C1242   1.397       .  A
C1241      H1246   1.061       .  S
C1242      C1243   1.400       .  A
C1242      H1247   1.073       .  S
C1243      C1244   1.405       .  A
C1244      H1248   1.082       .  S
C1249      C1250   1.408       .  A
C1249      C1254   1.414       .  A
C1249      H1255   1.083       .  S
C1250      C1251   1.402       .  A
C1251      C1252   1.391       .  A
C1251      H1256   1.084       .  S
C1252      C1253   1.408       .  A
C1252      H1257   1.083       .  S
C1253      C1254   1.413       .  A
C1254      H1258   1.082       .  S
C1259      H1261   1.086   1_565  S
C1260      H1262   1.085       .  S
C1263      H1265   1.085       .  S
C1263      C2668   1.341       .  D
C1264      H1266   1.086       .  S
C1264      C2667   1.342   1_455  D
C1267      C1268   1.400       .  A
C1267      C1272   1.391       .  A
C1267      H1273   1.083       .  S
C1268      C1269   1.407       .  A
C1269      C1270   1.412       .  A
C1269      H1274   1.083       .  S
C1270      C1271   1.414       .  A
C1270      H2679   1.082       .  S
C1271      C1272   1.408       .  A
C1272      H1276   1.083   1_455  S
H1275      C2674   1.082       .  S
C1277      C1278   1.402       .  A
C1277      C1282   1.399       .  A
C1277      H1283   1.082       .  S
C1278      C1279   1.412       .  A
C1279      C1280   1.405       .  A
C1279      H1284   1.077       .  S
C1280      C1281   1.403       .  A
C1281      C1282   1.414       .  A
C1282      H1286   1.083       .  S
C1287      C1288   1.404       .  A
C1287      C1292   1.402       .  A
C1287      H1293   1.082       .  S
C1288      C2693   1.412       .  A
C1289      C2692   1.411   1_455  A
C1289      C1290   1.391       .  A
C1289      H1294   1.083       .  S
C1290      C1291   1.398       .  A
C1290      H1295   1.083       .  S
C1291      C2696   1.409   1_455  A
C1292      C2695   1.409       .  A
C1292      H1296   1.080       .  S
C1297      C1298   1.410       .  A
C1297      C1302   1.391       .  A
C1297      H2707   1.084       .  S
C1298      C1299   1.404       .  A
C1299      C1300   1.404       .  A
C1299      H1304   1.082       .  S
C1300      C1301   1.410       .  A
C1300      H1305   1.079       .  S
C1301      C1302   1.401       .  A
C1302      H2710   1.082       .  S
H1303      C2701   1.084       .  S
H1306      C2706   1.083       .  S
C1307      C1308   1.415       .  A
C1307      C1312   1.416       .  A
C1307      H1313   1.082       .  S
C1308      C1309   1.410       .  A
C1309      C1310   1.396       .  A
C1309      H1314   1.083       .  S
C1310      C1311   1.403       .  A
C1311      C1312   1.408       .  A
C1312      H1316   1.083       .  S
C1317      C1318   1.403       .  A
C1317      C1322   1.396       .  A
C1317      H1323   1.082       .  S
C1319      C1320   1.402       .  A
C1319      H1324   1.081       .  S
C1320      C1321   1.404       .  A
C1320      H1325   1.081       .  S
C1322      H1326   1.083       .  S
C1327      C1328   1.416       .  A
C1327      C1332   1.415       .  A
C1327      H1333   1.081       .  S
C1328      C1329   1.412       .  A
C1329      C1330   1.391       .  A
C1329      H1334   1.082       .  S
C1330      C1331   1.398       .  A
C1330      H1335   1.083       .  S
C1331      C1332   1.407       .  A
C1332      H1336   1.083       .  S
C1337      C1338   1.408       .  A
C1337      C1342   1.400       .  A
C1337      H1343   1.081       .  S
C1338      C1339   1.401       .  A
C1339      C1340   1.395       .  A
C1339      H1344   1.082       .  S
C1340      C1341   1.411       .  A
C1340      H1345   1.083       .  S
C1341      C1342   1.404       .  A
C1342      H1346   1.082       .  S
C1347      C1348   1.412       .  A
C1347      H1353   1.081       .  S
C1348      C1349   1.407       .  A
C1349      H1354   1.083       .  S
C1350      C1351   1.403       .  A
C1350      H1355   1.080       .  S
C1351      C1352   1.409       .  A
C1352      H1356   1.082       .  S
C1357      H1359   1.087       .  S
C1357      C1358   1.334       .  D
C1358      H1360   1.087       .  S
C1361      H1363   1.087       .  S
C1361      C2766   1.332       .  D
C1362      H1364   1.082       .  S
C1362      C2765   1.333   1_455  D
C1365      C1366   1.407       .  A
C1365      C1370   1.396       .  A
C1365      H1371   1.080       .  S
C1366      C1367   1.400       .  A
C1367      C1368   1.391       .  A
C1367      H1372   1.083       .  S
C1368      C1369   1.411       .  A
C1368      H1373   1.083       .  S
C1369      C1370   1.403       .  A
C1370      H1374   1.082       .  S
C1375      C1376   1.404       .  A
C1375      C1380   1.397       .  A
C1375      H1381   1.084       .  S
C1376      C1377   1.412       .  A
C1377      C1378   1.411       .  A
C1377      H1382   1.081       .  S
C1378      C1379   1.409       .  A
C1378      H1383   1.082       .  S
C1379      C1380   1.410       .  A
C1380      H1384   1.081       .  S
C1385      C1386   1.412       .  A
C1385      C2794   1.409   1_455  A
C1385      H1391   1.076       .  S
C1386      C1387   1.403       .  A
C1387      C2792   1.401       .  A
C1387      H1392   1.083       .  S
C1388      C2791   1.400       .  A
C1388      C1389   1.415       .  A
C1388      H1393   1.082       .  S
C1389      C1390   1.406       .  A
C1390      C2789   1.408       .  A
C1390      H1394   1.081       .  S
C1395      C1396   1.419       .  A
C1395      C1400   1.395       .  A
C1395      H1401   1.082       .  S
C1396      C1397   1.406       .  A
C1397      C1398   1.397       .  A
C1397      H1402   1.057       .  S
C1398      C1399   1.398       .  A
C1398      H1403   1.078       .  S
C1399      C1400   1.400       .  A
C1400      H1404   1.083       .  S
C1405      C1406   1.423       .  A
C1405      C1410   1.417       .  A
C1405      C2059   1.476       .  S
C1406      C1407   1.422       .  A
C1406      C2101   1.498       .  S
C1407      C1408   1.426       .  A
C1407      C2088   1.515       .  S
C1408      C1409   1.432       .  A
C1408      C2064   1.489       .  S
C1409      C1410   1.422       .  A
C1409      C2068   1.493       .  S
C1410      C2081   1.525       .  S
C1411      C1412   1.439       .  A
C1411      C1416   1.420       .  A
C1411      C2098   1.517       .  S
C1412      C1413   1.411       .  A
C1412      C2050   1.517       .  S
C1413      C1414   1.414       .  A
C1413      H1418   1.085       .  S
C1414      C1415   1.424       .  A
C1414      C2043   1.491       .  S
C1415      C1416   1.408       .  A
C1415      C2030   1.525       .  S
C1416      H1417   1.078       .  S
C1419      C1420   1.431       .  A
C1419      C1424   1.418       .  A
C1419      C2023   1.501       .  S
C1420      C1421   1.405       .  A
C1420      C2091   1.520       .  S
C1421      C1422   1.413       .  A
C1421      H1426   1.084       .  S
C1422      C1423   1.426       .  A
C1422      C2000   1.496       .  S
C1423      C1424   1.415       .  A
C1423      C2010   1.519       .  S
C1424      H1425   1.084       .  S
C1427      C1428   1.425       .  A
C1427      C1432   1.425       .  A
C1427      C1961   1.474       .  S
C1428      C1429   1.418       .  A
C1428      C2053   1.521       .  S
C1429      C1430   1.423       .  A
C1429      C1993   1.491       .  S
C1430      C1431   1.422       .  A
C1430      C1966   1.491       .  S
C1431      C1432   1.419       .  A
C1431      C1970   1.496       .  S
C1432      C1980   1.510       .  S
C1433      C1434   1.427       .  A
C1433      C1438   1.425       .  A
C1433      C1924   1.475       .  S
C1434      C1435   1.415       .  A
C1434      C2020   1.504       .  S
C1435      C1436   1.417       .  A
C1435      C1952   1.505       .  S
C1436      C1437   1.429       .  A
C1436      C1927   1.484       .  S
C1437      C1438   1.429       .  A
C1437      C1945   1.501       .  S
C1438      C1932   1.522       .  S
C1439      C1440   1.422       .  A
C1439      C1444   1.407       .  A
C1439      C1990   1.489       .  S
C1440      C1441   1.410       .  A
C1440      C1955   1.506       .  S
C1441      C1442   1.414       .  A
C1441      H1446   1.084       .  S
C1442      C1443   1.423       .  A
C1442      C1914   1.494       .  S
C1443      C1444   1.403       .  A
C1443      C1904   1.505       .  S
C1444      H1445   1.085       .  S
C1447      C1448   1.416       .  A
C1447      C2154   1.426   1_544  A
C1447      C1875   1.476       .  S
C1448      C1449   1.421       .  A
C1448      C2013   1.513       .  S
C1449      C1450   1.429   1_544  A
C1449      C2040   1.494       .  S
C1450      C2153   1.419       .  A
C1450      C1879   1.486       .  S
C1451      C2152   1.420       .  A
C1451      C1452   1.421       .  A
C1451      C1887   1.511       .  S
C1452      C2149   1.425   1_556  A
C1452      C1894   1.504       .  S
C1453      C1454   1.428   1_556  A
C1453      C1458   1.424       .  A
C1453      C1851   1.474   1_556  S
C1454      C1455   1.415       .  A
C1454      C1917   1.495       .  S
C1455      C1456   1.416       .  A
C1455      C2033   1.508       .  S
C1456      C1457   1.423   1_554  A
C1456      C1847   1.476       .  S
C1457      C1458   1.416       .  A
C1457      C1866   1.490       .  S
C1458      C1856   1.522       .  S
C1459      C1464   1.426   1_554  A
C1459      C1823   1.477       .  S
C1460      C1461   1.417       .  A
C1460      C1907   1.508       .  S
C1461      C2003   1.502       .  S
C1462      C1463   1.422       .  A
C1462      C1820   1.472       .  S
C1463      C1464   1.416       .  A
C1463      C1841   1.509       .  S
C1464      C1828   1.505       .  S
C1465      C1466   1.437       .  A
C1465      C1470   1.421       .  A
C1465      C1771   1.494       .  S
C1466      C1467   1.433       .  A
C1466      C1810   1.506       .  S
C1467      C1468   1.429       .  A
C1467      C1800   1.525       .  S
C1468      C1469   1.423       .  A
C1468      C1776   1.477       .  S
C1469      C1470   1.412       .  A
C1469      C1780   1.504       .  S
C1470      C1790   1.505       .  S
C1471      C1472   1.426       .  A
C1471      C1476   1.412       .  A
C1471      C1869   1.488       .  S
C1472      C1473   1.410       .  A
C1472      C1838   1.518       .  S
C1473      C1474   1.414       .  A
C1473      H1478   1.083       .  S
C1474      C1475   1.425       .  A
C1474      C1765   1.492       .  S
C1475      C1476   1.404       .  A
C1475      C1793   1.512       .  S
C1476      H1477   1.085       .  S
C1479      C1480   1.429       .  A
C1479      C1484   1.411       .  A
C1479      C1831   1.499       .  S
C1480      C1481   1.410       .  A
C1480      C1884   1.521       .  S
C1481      C1482   1.420       .  A
C1481      H1486   1.083       .  S
C1482      C1483   1.432       .  A
C1482      C1783   1.506       .  S
C1483      C1484   1.410       .  A
C1483      C1755   1.517       .  S
C1484      H1485   1.084       .  S
C1487      C1488   1.428       .  A
C1487      C1492   1.427       .  A
C1487      C1717   1.491       .  S
C1488      C1489   1.416       .  A
C1488      C1762   1.496       .  S
C1489      C1490   1.420       .  A
C1489      C1722   1.510       .  S
C1490      C1491   1.426       .  A
C1490      C1713   1.481       .  S
C1491      C1492   1.427       .  A
C1491      C1732   1.507       .  S
C1492      C1742   1.511       .  S
C1493      C1494   1.427       .  A
C1493      C1498   1.432       .  A
C1493      C1675   1.487       .  S
C1494      C1495   1.419       .  A
C1494      C1752   1.514       .  S
C1495      C1496   1.424       .  A
C1495      C1684   1.495       .  S
C1496      C1497   1.417       .  A
C1496      C1679   1.487       .  S
C1497      C1498   1.425       .  A
C1497      C1697   1.505       .  S
C1498      C1704   1.511       .  S
C1499      C1500   1.438       .  A
C1499      C1504   1.420       .  A
C1499      C1897   1.512       .  S
C1500      C1501   1.408       .  A
C1500      C1859   1.517       .  S
C1501      C1502   1.412       .  A
C1501      H1506   1.085       .  S
C1502      C1503   1.425       .  A
C1502      C1687   1.491       .  S
C1503      C1504   1.412       .  A
C1503      C1725   1.524       .  S
C1504      H1505   1.079       .  S
C1507      C1508   1.425       .  A
C1507      C1512   1.412       .  A
C1507      C2071   1.494       .  S
C1508      C1509   1.405       .  A
C1508      C1973   1.506       .  S
C1509      H1514   1.083       .  S
C1510      C1511   1.428       .  A
C1510      C1707   1.491       .  S
C1511      C1745   1.512       .  S
C1512      H1513   1.084       .  S
C1515      C1516   1.435       .  A
C1515      C1520   1.417       .  A
C1515      C1942   1.520       .  S
C1516      C1517   1.410       .  A
C1516      C2078   1.508       .  S
C1517      C1518   1.413       .  A
C1517      H1522   1.085       .  S
C1518      C1519   1.433       .  A
C1518      C1813   1.499       .  S
C1519      C1520   1.414       .  A
C1519      C1694   1.529       .  S
C1520      H1521   1.075       .  S
C1523      C1524   1.434       .  A
C1523      C2230   1.410       .  A
C1523      C1935   1.531       .  S
C1524      C2227   1.420       .  A
C1524      C1983   1.505       .  S
C1525      C2226   1.419   1_545  A
C1525      C1526   1.414       .  A
C1525      H1530   1.084       .  S
C1526      C1527   1.431       .  A
C1526      C1803   1.531       .  S
C1527      C1528   1.420   1_545  A
C1527      C1735   1.502       .  S
C1528      C2225   1.412       .  A
C1528      H2231   1.083       .  S
H1529      C2230   1.083       .  S
O1531      C1566   1.236       .  S
O1531     Mg2235   2.119   1_545  S
O1531     Mg1539   2.142   1_556  S
C1532      H1571   1.081       .  S
C1532      O1545   1.236       .  S
C1532      O1569   1.270       .  A
Mg1533     O2233   2.111       .  S
Mg1533     O1577   2.270   1_556  S
Mg1533     O1573   2.250       .  S
Mg1533     O1544   2.328       .  S
Mg1533     O1562   2.195   1_556  S
O1534      C1555   1.232       .  S
O1534     Mg1576   2.132   1_556  S
O1534     Mg1559   2.130       .  S
O1535     Mg1559   2.308       .  S
C1536      C1824   1.458       .  S
C1536      O1550   1.277       .  A
O1537      C2267   1.267       .  A
O1537     Mg1539   2.296   1_565  S
O1538     Mg1570   2.160       .  S
Mg1539     O1553   2.242       .  S
Mg1539     O1541   2.267   1_554  S
C1540      C1880   1.461   1_565  S
C1540      O2280   1.273       .  A
C1540      O1546   1.270   1_565  A
H1542      C1555   1.081       .  S
C1543      H1568   1.081       .  S
C1543      O1557   1.237       .  S
O1544      C1567   1.276       .  A
O1545     Mg1559   2.116   1_554  S
O1546     Mg1576   2.283   1_556  S
C1547      C1848   1.449       .  S
C1547      O1560   1.267       .  A
C1547      O1552   1.265       .  A
C1548      C1819   1.448       .  S
C1548      O1575   1.266       .  A
Mg1549     O1557   2.147   1_556  S
Mg1549     O1550   2.321   1_556  S
Mg1549     O1551   2.309       .  S
Mg1549     O1578   2.255       .  S
O1551      C2257   1.269       .  A
O1552     Mg1559   2.258   1_554  S
O1553      C1572   1.270   1_545  A
O1554      C1574   1.255       .  A
O1554     Mg1570   2.239   1_556  S
C1555      O2253   1.267       .  A
O1556      C1567   1.239       .  S
O1556     Mg1570   2.130   1_556  S
O1557     Mg2278   2.140       .  S
O1558     Mg1570   2.296       .  S
Mg1559     O1575   2.247       .  S
O1560     Mg1576   2.239       .  S
H1561      C1566   1.081       .  S
O1562     Mg1570   2.183       .  S
O1562      C1565   1.259       .  A
H1563      C1565   1.081       .  S
H1564      C1567   1.081       .  S
C1565      O2239   1.264       .  A
O1569     Mg1576   2.301       .  S
C1572      C1876   1.461       .  S
C1572      O2279   1.267       .  A
O1573      C1574   1.262       .  A
C1574      C1852   1.452       .  S
Mg1576     O2259   2.132   1_545  S
O1577      C2274   1.267       .  A
O1578      C2242   1.271       .  A
O1579      C1614   1.236       .  S
O1579     Mg1581   2.121       .  S
O1579     Mg1587   2.153       .  S
C1580      H1619   1.081       .  S
C1580      O1593   1.235       .  S
C1580      O1617   1.271       .  A
Mg1581     O1625   2.256       .  S
Mg1581     O1621   2.259       .  S
Mg1581     O1592   2.327       .  S
Mg1581     O1610   2.192       .  S
O1582      C1603   1.233       .  S
O1582     Mg1624   2.153       .  S
O1582     Mg1607   2.167       .  S
O1583      C1614   1.271       .  A
O1583     Mg1607   2.307       .  S
C1584      C1923   1.458   1_545  S
C1584      O1586   1.257       .  A
C1584      O1598   1.275       .  A
O1585      C1613   1.265       .  A
O1585     Mg1587   2.309       .  S
O1586     Mg1618   2.183       .  S
Mg1587     O1593   2.155       .  S
Mg1587     O1601   2.239       .  S
Mg1587     O1589   2.261       .  S
C1588      C2063   1.468       .  S
C1588      O1626   1.263       .  A
C1588      O1594   1.281       .  A
O1589      C1596   1.265       .  A
H1590      C1603   1.081       .  S
C1591      H1616   1.081       .  S
C1591      O1605   1.236       .  S
C1591      O1606   1.271       .  A
O1592      C1615   1.276       .  A
O1593     Mg1607   2.136       .  S
O1594     Mg1624   2.340       .  S
C1595      C1965   1.467       .  S
C1595      O1608   1.275       .  A
C1595      O1600   1.271       .  A
C1596      C1928   1.468       .  S
C1596      O1623   1.273       .  A
Mg1597     O1604   2.105       .  S
Mg1597     O1605   2.159       .  S
Mg1597     O1598   2.314       .  S
Mg1597     O1599   2.310       .  S
Mg1597     O1626   2.201       .  S
O1599      C1603   1.269       .  A
O1600     Mg1607   2.286       .  S
O1601      C1620   1.270       .  A
O1602      C1622   1.253       .  A
O1602     Mg1618   2.229       .  S
O1604      C1615   1.240       .  S
O1604     Mg1618   2.127       .  S
O1605     Mg1624   2.159       .  S
O1606     Mg1618   2.304       .  S
Mg1607     O1623   2.280       .  S
O1608     Mg1624   2.287       .  S
H1609      C1614   1.081       .  S
O1610     Mg1618   2.177       .  S
O1610      C1613   1.260       .  A
H1611      C1613   1.081       .  S
H1612      C1615   1.081       .  S
O1617     Mg1624   2.312       .  S
C1620      C2060   1.457       .  S
C1620      O1625   1.264       .  A
O1621      C1622   1.262       .  A
C1622      C1962   1.450   1_545  S
O1627      C1662   1.236       .  S
O1627     Mg1629   2.125       .  S
O1627     Mg1635   2.153       .  S
C1628      H1667   1.081       .  S
C1628      O1641   1.237       .  S
C1628      O1665   1.272       .  A
Mg1629     O1658   2.163       .  S
Mg1629     O1673   2.310       .  S
Mg1629     O1669   2.216       .  S
Mg1629     O1640   2.310       .  S
O1630      C1651   1.235       .  S
O1630     Mg1672   2.119       .  S
O1630     Mg1655   2.117       .  S
O1631      C1662   1.270       .  A
O1631     Mg1655   2.296       .  S
C1632      C1772   1.465       .  S
C1632      O1634   1.274       .  A
C1632      O1646   1.266       .  A
O1633      C1661   1.268       .  A
O1633     Mg1635   2.305       .  S
O1634     Mg1666   2.308       .  S
Mg1635     O1641   2.114       .  S
Mg1635     O1649   2.236       .  S
Mg1635     O1637   2.290       .  S
C1636      C1680   1.459       .  S
C1636      O1674   1.269       .  A
C1636      O1642   1.266       .  A
O1637      C1644   1.273       .  A
H1638      C1651   1.081       .  S
C1639      H1664   1.081       .  S
C1639      O1653   1.235       .  S
C1639      O1654   1.271       .  A
O1640      C1663   1.271       .  A
O1641     Mg1655   2.136       .  S
O1642     Mg1672   2.272       .  S
C1643      C1714   1.446       .  S
C1643      O1656   1.264       .  A
C1643      O1648   1.256       .  A
C1644      C1775   1.455       .  S
C1644      O1671   1.258       .  A
Mg1645     O1652   2.157       .  S
Mg1645     O1653   2.127       .  S
Mg1645     O1646   2.260       .  S
Mg1645     O1647   2.302       .  S
Mg1645     O1674   2.267       .  S
O1647      C1651   1.269       .  A
O1648     Mg1655   2.235       .  S
O1649      C1668   1.267       .  A
O1650      C1670   1.277       .  A
O1650     Mg1666   2.296       .  S
O1652      C1663   1.235       .  S
O1652     Mg1666   2.136       .  S
O1653     Mg1672   2.121       .  S
O1654     Mg1666   2.313       .  S
Mg1655     O1671   2.188       .  S
O1656     Mg1672   2.244       .  S
H1657      C1662   1.081       .  S
O1658      C1661   1.233       .  S
O1658     Mg1666   2.170       .  S
H1659      C1661   1.081       .  S
H1660      C1663   1.081       .  S
O1665     Mg1672   2.316       .  S
C1668      C1676   1.472       .  S
C1668      O1673   1.275       .  A
O1669      C1670   1.264       .  A
C1670      C1718   1.463       .  S
C1675      H1677   1.087       .  S
C1676      H1678   1.086       .  S
C1679      H1681   1.086       .  S
C1679      C1680   1.340       .  D
C1680      H1682   1.086       .  S
C1683      C1684   1.409       .  A
C1683      C1688   1.398       .  A
C1683      H1689   1.081       .  S
C1684      C1685   1.401       .  A
C1685      C1686   1.395       .  A
C1685      H1690   1.082       .  S
C1686      C1687   1.411       .  A
C1686      H1691   1.083       .  S
C1687      C1688   1.402       .  A
C1688      H1692   1.082       .  S
C1693      C1694   1.420       .  A
C1693      C1698   1.400       .  A
C1693      H1699   1.080       .  S
C1694      C1695   1.412       .  A
C1695      C1696   1.407       .  A
C1695      H1700   1.078       .  S
C1696      C1697   1.408       .  A
C1696      H1701   1.083       .  S
C1697      C1698   1.399       .  A
C1698      H1702   1.084       .  S
C1703      C1704   1.410       .  A
C1703      C1708   1.397       .  A
C1703      H1709   1.081       .  S
C1704      C1705   1.405       .  A
C1705      C1706   1.396       .  A
C1705      H1710   1.071       .  S
C1706      C1707   1.398       .  A
C1706      H1711   1.075       .  S
C1707      C1708   1.408       .  A
C1713      H1715   1.086   1_545  S
C1713      C2416   1.335   1_545  D
C1714      H1716   1.085       .  S
C1714      C2415   1.331       .  D
C1717      H1719   1.081   1_655  S
C1718      H1720   1.087       .  S
C1721      C1722   1.399       .  A
C1721      C2428   1.395   1_545  A
C1721      H1727   1.083       .  S
C1722      C1723   1.408       .  A
C1723      C2426   1.417   1_545  A
C1723      H1728   1.083       .  S
C1724      C2425   1.417       .  A
C1724      C1725   1.417       .  A
C1724      H1729   1.081       .  S
C1725      C1726   1.412       .  A
C1726      C2423   1.396       .  A
C1726      H1730   1.082       .  S
C1731      C1732   1.414       .  A
C1731      C1736   1.409       .  A
C1731      H1737   1.079       .  S
C1732      C1733   1.400       .  A
C1733      C1734   1.395       .  A
C1733      H1738   1.083       .  S
C1734      C1735   1.414       .  A
C1734      H1739   1.084       .  S
C1735      C1736   1.404       .  A
C1736      H1740   1.082       .  S
C1741      C1742   1.407       .  A
C1741      C1746   1.398       .  A
C1741      H1747   1.083       .  S
C1742      C1743   1.405       .  A
C1743      C1744   1.405       .  A
C1743      H1748   1.082       .  S
C1744      C1745   1.411       .  A
C1744      H1749   1.068       .  S
C1745      C1746   1.410       .  A
C1746      H1750   1.083   1_655  S
C1751      C1752   1.403       .  A
C1751      C1756   1.396       .  A
C1751      H1757   1.083       .  S
C1753      C1754   1.416       .  A
C1753      H1758   1.083       .  S
C1754      C1755   1.412       .  A
C1754      H1759   1.082       .  S
C1756      H1760   1.083   1_655  S
C1761      C1766   1.396       .  A
C1761      H1767   1.082       .  S
C1762      C1763   1.402       .  A
C1763      C1764   1.395       .  A
C1763      H1768   1.082       .  S
C1764      H1769   1.083       .  S
C1765      C1766   1.403       .  A
C1766      H1770   1.082       .  S
C1771      H1773   1.086       .  S
C1771      C1772   1.342       .  D
C1772      H1774   1.084       .  S
C1775      H1777   1.088       .  S
C1775      C2478   1.329       .  D
C1776      H1778   1.083   1_545  S
C1776      C2477   1.334       .  D
C1779      C1780   1.401       .  A
C1779      C1784   1.393       .  A
C1779      H1785   1.082       .  S
C1780      C2483   1.410   1_545  A
C1781      C2482   1.412       .  A
C1781      C1782   1.407       .  A
C1781      H1786   1.081       .  S
C1782      C1783   1.406       .  A
C1782      H1787   1.080       .  S
C1783      C2486   1.412       .  A
C1784      C2485   1.411   1_545  A
C1784      H1788   1.083       .  S
C1789      C1790   1.408       .  A
C1789      C1794   1.413       .  A
C1789      H1795   1.083       .  S
C1790      C1791   1.400       .  A
C1791      C1792   1.394       .  A
C1791      H1796   1.083       .  S
C1792      C1793   1.410       .  A
C1792      H1797   1.083       .  S
C1793      C1794   1.413       .  A
C1794      H1798   1.082       .  S
C1799      C1800   1.404       .  A
C1799      C1804   1.400       .  A
C1799      H2507   1.083       .  S
C1800      C1801   1.415       .  A
C1801      C1802   1.425       .  A
C1801      H1806   1.082       .  S
C1802      C1803   1.416       .  A
C1802      H1807   1.082       .  S
C1803      C1804   1.415       .  A
C1804      H2510   1.082       .  S
H1805      C2501   1.083       .  S
H1808      C2506   1.083       .  S
C1809      C1810   1.412       .  A
C1809      C1814   1.403       .  A
C1809      H1815   1.080       .  S
C1810      C1811   1.403       .  A
C1811      C1812   1.400       .  A
C1811      H1816   1.082       .  S
C1812      C1813   1.411       .  A
C1812      H1817   1.083       .  S
C1813      C1814   1.403       .  A
C1814      H1818   1.082       .  S
C1819      C1820   1.332       .  D
C1820      H1822   1.087   1_556  S
C1823      H1825   1.084       .  S
C1823      C1824   1.326       .  D
C1827      C1828   1.410       .  A
C1827      C1832   1.400       .  A
C1827      H1833   1.080       .  S
C1828      C1829   1.403       .  A
C1829      C1830   1.397       .  A
C1830      C1831   1.411       .  A
C1830      H1835   1.083       .  S
C1831      C1832   1.403       .  A
C1832      H1836   1.082       .  S
C1837      C1838   1.412       .  A
C1837      C1842   1.396       .  A
C1837      H1843   1.082       .  S
C1838      C1839   1.415       .  A
C1839      C1840   1.416       .  A
C1839      H1844   1.082       .  S
C1840      C1841   1.408       .  A
C1840      H1845   1.083       .  S
C1841      C1842   1.401       .  A
C1847      H1849   1.087   1_554  S
C1847      C1848   1.335       .  D
C1848      H1850   1.085       .  S
C1851      H1853   1.086       .  S
C1851      C1852   1.334   1_554  D
C1852      H1854   1.085       .  S
C1855      C1856   1.404       .  A
C1855      C1860   1.398       .  A
C1855      H1861   1.080       .  S
C1856      C1857   1.409       .  A
C1857      C1858   1.414       .  A
C1857      H1862   1.082       .  S
C1858      C1859   1.415       .  A
C1858      H1863   1.077       .  S
C1859      C1860   1.408       .  A
C1860      H1864   1.084       .  S
C1865      C1866   1.398       .  A
C1865      C1870   1.393       .  A
C1865      H1871   1.083       .  S
C1866      C1867   1.408       .  A
C1867      C1868   1.398       .  A
C1867      H1872   1.080       .  S
C1868      C1869   1.401       .  A
C1868      H1873   1.082       .  S
C1869      C1870   1.411       .  A
C1870      H1874   1.083       .  S
C1875      H1877   1.087       .  S
C1875      C1876   1.335   1_545  D
C1876      H2580   1.087       .  S
H1878      C2578   1.087       .  S
C1879      H2583   1.087   1_556  S
C1879      C1880   1.340   1_565  D
C1880      H1882   1.086       .  S
H1881      C2581   1.087   1_554  S
C1883      C1884   1.408       .  A
C1883      C1888   1.406       .  A
C1883      H1889   1.081       .  S
C1884      C1885   1.415       .  A
C1885      C1886   1.404       .  A
C1885      H1890   1.082       .  S
C1886      C1887   1.403       .  A
C1886      H2593   1.083       .  S
C1887      C1888   1.408       .  A
C1888      H1892   1.079       .  S
H1891      C2588   1.083   1_545  S
C1893      C1894   1.405       .  A
C1893      C1898   1.402       .  A
C1893      H2601   1.082       .  S
C1894      C1895   1.399       .  A
C1895      C1896   1.395       .  A
C1895      H1900   1.074       .  S
C1896      C1897   1.401       .  A
C1896      H1901   1.057       .  S
C1897      C1898   1.417       .  A
C1898      H1902   1.082       .  S
H1899      C2595   1.082   1_545  S
C1903      C1904   1.410       .  A
C1903      C1908   1.413       .  A
C1903      H1909   1.082       .  S
C1904      C1905   1.410       .  A
C1905      C1906   1.389       .  A
C1906      C1907   1.400       .  A
C1907      C1908   1.412       .  A
C1908      H1912   1.083       .  S
C1913      C1914   1.403       .  A
C1913      C1918   1.401       .  A
C1913      H1919   1.082       .  S
C1914      C1915   1.412       .  A
C1915      C1916   1.395       .  A
C1915      H1920   1.083       .  S
C1916      C1917   1.399       .  A
C1916      H1921   1.082       .  S
C1917      C1918   1.408       .  A
C1918      H1922   1.079       .  S
C1923      H1925   1.088       .  S
C1923      C2626   1.328       .  D
C1924      H1926   1.084       .  S
C1924      C2625   1.330       .  D
C1927      H1929   1.087       .  S
C1927      C1928   1.336       .  D
C1928      H1930   1.087       .  S
C1931      C1932   1.403       .  A
C1931      C1936   1.403       .  A
C1931      H2639   1.083       .  S
C1932      C1933   1.414       .  A
C1933      C1934   1.414       .  A
C1933      H1938   1.079       .  S
C1934      C1935   1.410       .  A
C1934      H1939   1.080       .  S
C1935      C1936   1.419       .  A
C1936      H2642   1.082       .  S
H1937      C2633   1.083       .  S
H1940      C2638   1.082   1_545  S
C1941      C1942   1.418       .  A
C1941      C1946   1.400       .  A
C1941      H1947   1.082       .  S
C1942      C1943   1.404       .  A
C1943      C1944   1.397       .  A
C1943      H1948   1.059       .  S
C1944      C1945   1.398       .  A
C1944      H1949   1.074       .  S
C1945      C1946   1.404       .  A
C1946      H1950   1.083       .  S
C1951      C1952   1.408       .  A
C1951      C1956   1.413       .  A
C1951      H1957   1.083       .  S
C1952      C1953   1.402       .  A
C1953      C1954   1.392       .  A
C1953      H1958   1.083       .  S
C1954      C1955   1.408       .  A
C1954      H1959   1.083       .  S
C1955      C1956   1.413       .  A
C1956      H1960   1.082       .  S
C1961      H1963   1.086       .  S
C1961      C2664   1.333       .  D
C1962      H1964   1.085       .  S
C1962      C2663   1.333       .  D
C1965      H1967   1.085       .  S
C1966      H1968   1.086       .  S
C1969      C1970   1.399       .  A
C1969      C1974   1.390       .  A
C1969      H1975   1.083       .  S
C1970      C1971   1.406       .  A
C1971      C1972   1.411       .  A
C1971      H1976   1.083       .  S
C1972      C1973   1.413       .  A
C1973      C1974   1.408       .  A
C1974      H1978   1.082       .  S
C1979      C1980   1.402       .  A
C1979      C1984   1.398       .  A
C1979      H1985   1.082       .  S
C1980      C1981   1.411       .  A
C1981      C1982   1.405       .  A
C1981      H1986   1.077       .  S
C1982      C1983   1.404       .  A
C1982      H2689   1.082       .  S
C1983      C1984   1.414       .  A
C1984      H1988   1.083       .  S
H1987      C2684   1.082       .  S
C1989      C1990   1.403       .  A
C1989      C1994   1.401       .  A
C1989      H1995   1.082       .  S
C1991      C1992   1.390       .  A
C1991      H1996   1.083       .  S
C1992      C1993   1.398       .  A
C1992      H1997   1.083       .  S
C1994      H1998   1.080       .  S
C1999      C2000   1.410       .  A
C1999      C2004   1.391       .  A
C2000      C2001   1.405       .  A
C2001      C2002   1.406       .  A
C2001      H2006   1.082       .  S
C2002      C2003   1.411       .  A
C2002      H2007   1.080       .  S
C2003      C2004   1.400       .  A
C2009      C2010   1.415       .  A
C2009      C2014   1.418       .  A
C2009      H2015   1.082       .  S
C2010      C2011   1.411       .  A
C2011      C2012   1.397       .  A
C2011      H2016   1.083       .  S
C2012      C2013   1.404       .  A
C2012      H2719   1.083   1_545  S
C2013      C2014   1.409       .  A
C2014      H2018   1.083       .  S
H2017      C2714   1.083       .  S
C2019      C2020   1.403       .  A
C2019      C2024   1.398       .  A
C2019      H2025   1.082       .  S
C2020      C2723   1.409       .  A
C2021      C2722   1.410   1_545  A
C2021      C2022   1.401       .  A
C2021      H2026   1.081       .  S
C2022      C2023   1.403       .  A
C2022      H2027   1.081       .  S
C2023      C2726   1.410   1_545  A
C2024      C2725   1.411       .  A
C2024      H2028   1.083       .  S
C2029      C2030   1.417       .  A
C2029      C2034   1.416       .  A
C2029      H2035   1.081       .  S
C2030      C2031   1.413       .  A
C2031      C2032   1.395       .  A
C2031      H2036   1.081       .  S
C2032      C2033   1.400       .  A
C2032      H2037   1.083       .  S
C2033      C2034   1.407       .  A
C2034      H2038   1.083       .  S
C2039      C2040   1.409       .  A
C2039      C2044   1.399       .  A
C2039      H2045   1.081       .  S
C2040      C2041   1.401       .  A
C2041      C2042   1.395       .  A
C2041      H2046   1.082       .  S
C2042      C2043   1.410       .  A
C2042      H2047   1.083       .  S
C2043      C2044   1.403       .  A
C2044      H2048   1.083       .  S
C2049      C2050   1.414   1_565  A
C2049      C2756   1.414       .  A
C2049      H2055   1.080   1_565  S
C2050      C2051   1.409       .  A
C2051      C2754   1.399   1_545  A
C2051      H2056   1.083       .  S
C2052      C2753   1.398       .  A
C2052      C2053   1.403       .  A
C2052      H2057   1.080       .  S
C2053      C2054   1.410       .  A
C2054      C2751   1.415       .  A
C2054      H2058   1.082       .  S
C2059      H2061   1.087       .  S
C2059      C2060   1.334       .  D
C2060      H2062   1.087       .  S
C2063      H2065   1.087       .  S
C2064      H2066   1.082       .  S
C2067      C2068   1.407       .  A
C2067      C2072   1.396       .  A
C2067      H2073   1.080       .  S
C2068      C2069   1.401       .  A
C2069      C2070   1.392       .  A
C2069      H2074   1.083       .  S
C2070      C2071   1.411       .  A
C2070      H2075   1.083       .  S
C2071      C2072   1.404       .  A
C2072      H2076   1.082       .  S
C2077      C2078   1.404       .  A
C2077      C2082   1.398       .  A
C2077      H2083   1.084       .  S
C2078      C2079   1.412       .  A
C2079      C2080   1.413       .  A
C2079      H2084   1.082       .  S
C2080      C2081   1.410       .  A
C2080      H2085   1.082       .  S
C2081      C2082   1.410       .  A
C2082      H2086   1.081       .  S
C2087      C2088   1.411       .  A
C2087      H2093   1.076       .  S
C2088      C2089   1.404       .  A
C2089      H2094   1.083       .  S
C2090      C2091   1.416   1_455  A
C2090      H2095   1.082   1_455  S
C2091      C2092   1.407       .  A
C2092      H2096   1.081       .  S
C2097      C2098   1.418       .  A
C2097      C2102   1.397       .  A
C2097      H2103   1.082       .  S
C2098      C2099   1.404       .  A
C2099      C2100   1.397       .  A
C2099      H2104   1.061       .  S
C2100      C2101   1.399       .  A
C2100      H2105   1.076       .  S
C2101      C2102   1.402       .  A
C2102      H2106   1.083       .  S
C2107      C2108   1.422       .  A
C2107      C2112   1.417       .  A
C2107      C2761   1.476       .  S
C2108      C2109   1.418       .  A
C2108      C2803   1.493       .  S
C2109      C2110   1.426       .  A
C2109      C2790   1.516       .  S
C2110      C2111   1.433       .  A
C2110      C2766   1.488       .  S
C2111      C2112   1.423       .  A
C2111      C2770   1.493       .  S
C2112      C2783   1.526       .  S
C2113      C2114   1.440       .  A
C2113      C2118   1.419       .  A
C2113      C2800   1.523       .  S
C2114      C2115   1.414       .  A
C2114      C2752   1.514       .  S
C2115      C2116   1.414       .  A
C2115      H2120   1.085       .  S
C2116      C2117   1.422       .  A
C2116      C2745   1.495       .  S
C2117      C2118   1.407       .  A
C2117      C2732   1.521       .  S
C2118      H2119   1.077       .  S
C2121      C2122   1.430       .  A
C2121      C2126   1.419       .  A
C2121      C2725   1.500       .  S
C2122      C2123   1.403       .  A
C2122      C2793   1.519       .  S
C2123      C2124   1.413       .  A
C2123      H2128   1.084       .  S
C2124      C2125   1.426       .  A
C2124      C2702   1.494       .  S
C2125      C2126   1.415       .  A
C2125      C2712   1.519       .  S
C2126      H2127   1.084       .  S
C2129      C2130   1.424       .  A
C2129      C2134   1.425       .  A
C2129      C2663   1.474       .  S
C2130      C2131   1.419       .  A
C2130      C2755   1.521       .  S
C2131      C2132   1.425       .  A
C2131      C2695   1.492       .  S
C2132      C2133   1.423       .  A
C2132      C2668   1.489       .  S
C2133      C2134   1.418       .  A
C2133      C2672   1.499       .  S
C2134      C2682   1.507       .  S
C2135      C2136   1.428       .  A
C2135      C2140   1.424       .  A
C2135      C2626   1.474       .  S
C2136      C2137   1.417       .  A
C2136      C2722   1.507       .  S
C2137      C2138   1.419       .  A
C2137      C2654   1.506       .  S
C2138      C2139   1.432       .  A
C2138      C2629   1.487       .  S
C2139      C2140   1.431       .  A
C2139      C2647   1.503       .  S
C2140      C2634   1.524       .  S
C2141      C2142   1.424       .  A
C2141      C2146   1.409       .  A
C2141      C2692   1.492       .  S
C2142      C2143   1.411       .  A
C2142      C2657   1.510       .  S
C2143      C2144   1.414       .  A
C2143      H2148   1.084       .  S
C2144      C2145   1.425       .  A
C2144      C2616   1.497       .  S
C2145      C2146   1.405       .  A
C2145      C2606   1.509       .  S
C2146      H2147   1.085       .  S
C2149      C2150   1.417       .  A
C2149      C2577   1.471       .  S
C2150      C2151   1.420       .  A
C2150      C2715   1.515       .  S
C2151      C2152   1.430   1_554  A
C2151      C2742   1.497       .  S
C2152      C2581   1.482       .  S
C2153      C2154   1.422       .  A
C2153      C2589   1.508       .  S
C2154      C2596   1.503       .  S
C2155      C2156   1.426       .  A
C2155      C2160   1.423   1_554  A
C2155      C2553   1.474       .  S
C2156      C2157   1.414       .  A
C2156      C2619   1.497       .  S
C2157      C2158   1.419       .  A
C2157      C2735   1.505       .  S
C2158      C2159   1.425   1_554  A
C2158      C2549   1.482       .  S
C2159      C2160   1.419       .  A
C2159      C2568   1.492       .  S
C2160      C2558   1.522       .  S
C2161      C2166   1.426   1_554  A
C2161      C2525   1.481       .  S
C2162      C2163   1.415       .  A
C2162      C2609   1.511       .  S
C2163      C2705   1.498       .  S
C2164      C2165   1.421       .  A
C2164      C2522   1.480       .  S
C2165      C2166   1.417       .  A
C2165      C2543   1.506       .  S
C2166      C2530   1.502       .  S
C2167      C2168   1.436       .  A
C2167      C2172   1.426       .  A
C2167      C2473   1.495       .  S
C2168      C2169   1.426       .  A
C2168      C2512   1.504       .  S
C2169      C2170   1.430       .  A
C2169      C2502   1.528       .  S
C2170      C2171   1.425       .  A
C2170      C2478   1.474       .  S
C2171      C2172   1.417       .  A
C2171      C2482   1.512       .  S
C2172      C2492   1.507       .  S
C2173      C2174   1.426       .  A
C2173      C2178   1.408       .  A
C2173      C2571   1.492       .  S
C2174      C2175   1.413       .  A
C2174      C2540   1.514       .  S
C2175      C2176   1.414       .  A
C2175      H2180   1.083       .  S
C2176      C2177   1.424       .  A
C2176      C2467   1.499       .  S
C2177      C2178   1.403       .  A
C2177      C2495   1.504       .  S
C2178      H2179   1.085       .  S
C2181      C2182   1.430       .  A
C2181      C2186   1.410       .  A
C2181      C2533   1.495       .  S
C2182      C2183   1.410       .  A
C2182      C2586   1.521       .  S
C2183      C2184   1.418       .  A
C2183      H2188   1.083       .  S
C2184      C2185   1.429       .  A
C2184      C2485   1.502       .  S
C2185      C2186   1.407       .  A
C2185      C2457   1.513       .  S
C2186      H2187   1.085       .  S
C2189      C2190   1.428       .  A
C2189      C2194   1.429       .  A
C2189      C2419   1.487       .  S
C2190      C2191   1.412       .  A
C2190      C2464   1.491       .  S
C2191      C2192   1.416       .  A
C2191      C2424   1.514       .  S
C2192      C2193   1.422       .  A
C2192      C2415   1.470       .  S
C2193      C2194   1.424       .  A
C2193      C2434   1.505       .  S
C2194      C2444   1.513       .  S
C2195      C2196   1.427       .  A
C2195      C2200   1.428       .  A
C2195      C2377   1.498       .  S
C2196      C2197   1.424       .  A
C2196      C2454   1.508       .  S
C2197      C2198   1.427       .  A
C2197      C2386   1.499       .  S
C2198      C2199   1.419       .  A
C2198      C2381   1.494       .  S
C2199      C2200   1.426       .  A
C2199      C2399   1.505       .  S
C2200      C2406   1.504       .  S
C2201      C2202   1.434       .  A
C2201      C2206   1.417       .  A
C2201      C2599   1.507       .  S
C2202      C2203   1.407       .  A
C2202      C2561   1.516       .  S
C2203      C2204   1.414       .  A
C2203      H2208   1.085       .  S
C2204      C2205   1.427       .  A
C2204      C2389   1.492       .  S
C2205      C2206   1.413       .  A
C2205      C2427   1.525       .  S
C2206      H2207   1.079       .  S
C2209      C2210   1.427       .  A
C2209      C2214   1.414       .  A
C2209      C2773   1.496       .  S
C2210      C2211   1.404       .  A
C2210      C2675   1.510       .  S
C2211      H2216   1.083       .  S
C2212      C2213   1.427       .  A
C2212      C2409   1.491       .  S
C2213      C2447   1.507       .  S
C2214      H2215   1.084       .  S
C2217      C2218   1.435       .  A
C2217      C2222   1.416       .  A
C2217      C2644   1.514       .  S
C2218      C2219   1.410       .  A
C2218      C2780   1.510       .  S
C2219      C2220   1.416       .  A
C2219      H2224   1.085       .  S
C2220      C2221   1.433       .  A
C2220      C2515   1.501       .  S
C2221      C2222   1.409       .  A
C2221      C2396   1.524       .  S
C2222      H2223   1.078       .  S
C2225      C2226   1.435       .  A
C2225      C2637   1.535       .  S
C2226      C2685   1.503       .  S
C2227      C2228   1.415       .  A
C2227      H2232   1.084       .  S
C2228      C2229   1.431       .  A
C2228      C2505   1.530       .  S
C2229      C2230   1.417       .  A
C2229      C2437   1.503       .  S
O2233      C2268   1.236       .  S
O2233     Mg2241   2.158   1_556  S
C2234      H2273   1.081       .  S
C2234      O2247   1.237       .  S
C2234      O2271   1.272       .  A
Mg2235     O2264   2.124   1_556  S
Mg2235     O2279   2.271   1_556  S
Mg2235     O2275   2.251       .  S
Mg2235     O2246   2.324       .  S
O2236      C2257   1.233       .  S
O2236     Mg2278   2.135   1_556  S
O2236     Mg2261   2.149       .  S
O2237     Mg2261   2.300       .  S
C2238      C2526   1.462       .  S
C2238      O2252   1.275       .  A
O2239     Mg2241   2.307       .  S
O2240     Mg2272   2.175       .  S
Mg2241     O2255   2.223       .  S
Mg2241     O2243   2.264   1_554  S
C2242      C2582   1.459       .  S
C2242      O2248   1.271       .  A
H2244      C2257   1.081       .  S
C2245      H2270   1.081       .  S
C2245      O2259   1.237       .  S
O2246      C2269   1.274       .  A
O2247     Mg2261   2.140   1_554  S
O2248     Mg2278   2.294   1_556  S
C2249      C2550   1.456       .  S
C2249      O2262   1.268       .  A
C2249      O2254   1.267       .  A
C2250      C2521   1.457       .  S
C2250      O2277   1.269       .  A
Mg2251     O2259   2.143   1_556  S
Mg2251     O2252   2.306   1_556  S
Mg2251     O2253   2.304   1_565  S
Mg2251     O2280   2.274       .  S
O2254     Mg2261   2.272   1_554  S
O2255      C2274   1.269       .  A
O2256      C2276   1.254       .  A
O2256     Mg2272   2.230   1_556  S
O2258      C2269   1.237       .  S
O2258     Mg2272   2.130   1_556  S
O2260     Mg2272   2.299       .  S
Mg2261     O2277   2.253       .  S
O2262     Mg2278   2.247       .  S
H2263      C2268   1.081       .  S
O2264      C2267   1.233       .  S
O2264     Mg2272   2.119       .  S
H2265      C2267   1.081       .  S
H2266      C2269   1.081       .  S
O2271     Mg2278   2.309       .  S
C2274      C2578   1.457       .  S
O2275      C2276   1.263       .  A
C2276      C2554   1.451       .  S
O2281      C2316   1.237       .  S
O2281     Mg2283   2.132       .  S
O2281     Mg2289   2.144       .  S
C2282      H2321   1.081       .  S
C2282      O2295   1.235       .  S
C2282      O2319   1.271       .  A
Mg2283     O2312   2.123       .  S
Mg2283     O2327   2.253       .  S
Mg2283     O2323   2.260       .  S
Mg2283     O2294   2.317       .  S
O2284      C2305   1.233       .  S
O2284     Mg2326   2.155       .  S
O2284     Mg2309   2.168       .  S
O2285      C2316   1.272       .  A
O2285     Mg2309   2.313       .  S
C2286      C2625   1.458       .  S
C2286      O2288   1.257       .  A
C2286      O2300   1.273       .  A
O2287      C2315   1.266       .  A
O2287     Mg2289   2.293       .  S
O2288     Mg2320   2.190       .  S
Mg2289     O2295   2.150       .  S
Mg2289     O2303   2.240       .  S
Mg2289     O2291   2.268       .  S
C2290      C2765   1.468       .  S
C2290      O2328   1.263       .  A
C2290      O2296   1.281       .  A
O2291      C2298   1.266       .  A
H2292      C2305   1.081       .  S
C2293      H2318   1.081       .  S
C2293      O2307   1.237       .  S
C2293      O2308   1.272       .  A
O2294      C2317   1.272       .  A
O2295     Mg2309   2.126       .  S
O2296     Mg2326   2.339       .  S
C2297      C2667   1.468       .  S
C2297      O2310   1.274       .  A
C2297      O2302   1.272       .  A
C2298      C2630   1.471       .  S
C2298      O2325   1.273       .  A
Mg2299     O2306   2.103       .  S
Mg2299     O2307   2.157       .  S
Mg2299     O2300   2.299       .  S
Mg2299     O2301   2.307       .  S
Mg2299     O2328   2.200       .  S
O2301      C2305   1.269       .  A
O2302     Mg2309   2.293       .  S
O2303      C2322   1.269       .  A
O2304      C2324   1.253       .  A
O2304     Mg2320   2.226       .  S
O2306      C2317   1.237       .  S
O2306     Mg2320   2.129       .  S
O2307     Mg2326   2.152       .  S
O2308     Mg2320   2.304       .  S
Mg2309     O2325   2.288       .  S
O2310     Mg2326   2.282       .  S
H2311      C2316   1.081       .  S
O2312      C2315   1.233       .  S
O2312     Mg2320   2.109       .  S
H2313      C2315   1.081       .  S
H2314      C2317   1.081       .  S
O2319     Mg2326   2.314       .  S
C2322      C2762   1.456       .  S
C2322      O2327   1.264       .  A
O2323      C2324   1.263       .  A
C2324      C2664   1.450       .  S
O2329      C2364   1.237       .  S
O2329     Mg2331   2.128       .  S
O2329     Mg2337   2.156       .  S
C2330      H2369   1.081       .  S
C2330      O2343   1.237       .  S
C2330      O2367   1.273       .  A
Mg2331     O2360   2.150       .  S
Mg2331     O2375   2.284       .  S
Mg2331     O2371   2.240       .  S
Mg2331     O2342   2.313       .  S
O2332      C2353   1.232       .  S
O2332     Mg2374   2.119       .  S
O2332     Mg2357   2.126       .  S
O2333      C2364   1.271       .  A
O2333     Mg2357   2.299       .  S
C2334      C2474   1.475       .  S
C2334      O2336   1.267       .  A
C2334      O2348   1.276       .  A
O2335      C2363   1.267       .  A
O2335     Mg2337   2.301       .  S
O2336     Mg2368   2.248       .  S
Mg2337     O2343   2.113       .  S
Mg2337     O2351   2.228       .  S
Mg2337     O2339   2.278       .  S
C2338      C2382   1.465       .  S
C2338      O2376   1.275       .  A
C2338      O2344   1.270       .  A
O2339      C2346   1.271       .  A
H2340      C2353   1.081       .  S
C2341      H2366   1.081       .  S
C2341      O2355   1.236       .  S
C2341      O2356   1.271       .  A
O2342      C2365   1.272       .  A
O2343     Mg2357   2.131       .  S
O2344     Mg2374   2.275       .  S
C2345      C2416   1.456       .  S
C2345      O2358   1.268       .  A
C2345      O2350   1.257       .  A
C2346      C2477   1.462   1_565  S
C2346      O2373   1.260       .  A
Mg2347     O2354   2.168       .  S
Mg2347     O2355   2.158       .  S
Mg2347     O2348   2.300       .  S
Mg2347     O2349   2.300       .  S
Mg2347     O2376   2.296       .  S
O2349      C2353   1.267       .  A
O2350     Mg2357   2.236       .  S
O2351      C2370   1.265       .  A
O2352      C2372   1.272       .  A
O2352     Mg2368   2.282       .  S
O2354      C2365   1.236       .  S
O2354     Mg2368   2.149       .  S
O2355     Mg2374   2.151       .  S
O2356     Mg2368   2.307       .  S
Mg2357     O2373   2.217       .  S
O2358     Mg2374   2.290       .  S
H2359      C2364   1.081       .  S
O2360      C2363   1.233       .  S
O2360     Mg2368   2.144       .  S
H2361      C2363   1.081       .  S
H2362      C2365   1.081       .  S
O2367     Mg2374   2.318       .  S
C2370      C2378   1.464       .  S
C2370      O2375   1.272       .  A
O2371      C2372   1.264       .  A
C2372      C2420   1.470       .  S
C2377      H2379   1.087       .  S
C2378      H2380   1.086       .  S
C2381      H2383   1.086       .  S
C2381      C2382   1.342       .  D
C2382      H2384   1.085       .  S
C2385      C2386   1.410       .  A
C2385      C2390   1.401       .  A
C2385      H2391   1.081       .  S
C2386      C2387   1.401       .  A
C2387      C2388   1.394       .  A
C2387      H2392   1.082       .  S
C2388      C2389   1.410       .  A
C2388      H2393   1.083       .  S
C2389      C2390   1.403       .  A
C2390      H2394   1.082       .  S
C2395      C2396   1.417       .  A
C2395      C2400   1.400       .  A
C2395      H2401   1.081       .  S
C2396      C2397   1.410       .  A
C2397      C2398   1.407       .  A
C2397      H2402   1.081       .  S
C2398      C2399   1.408       .  A
C2398      H2403   1.082       .  S
C2399      C2400   1.400       .  A
C2400      H2404   1.083       .  S
C2405      C2406   1.409       .  A
C2405      C2410   1.397       .  A
C2405      H2411   1.082       .  S
C2406      C2407   1.401       .  A
C2407      C2408   1.393       .  A
C2407      H2412   1.071       .  S
C2408      C2409   1.398       .  A
C2408      H2413   1.072       .  S
C2409      C2410   1.408       .  A
C2415      H2417   1.086       .  S
C2416      H2418   1.085   1_565  S
C2419      H2421   1.082   1_655  S
C2420      H2422   1.087       .  S
C2423      C2424   1.401       .  A
C2423      H2429   1.082       .  S
C2424      C2425   1.408       .  A
C2425      H2430   1.083       .  S
C2426      C2427   1.417       .  A
C2426      H2431   1.081       .  S
C2427      C2428   1.413       .  A
C2428      H2432   1.081       .  S
C2433      C2434   1.413       .  A
C2433      C2438   1.406       .  A
C2433      H2439   1.079       .  S
C2434      C2435   1.399       .  A
C2435      C2436   1.395       .  A
C2435      H2440   1.083       .  S
C2436      C2437   1.416       .  A
C2436      H2441   1.083       .  S
C2437      C2438   1.403       .  A
C2438      H2442   1.082       .  S
C2443      C2444   1.408       .  A
C2443      C2448   1.398       .  A
C2443      H2449   1.083       .  S
C2444      C2445   1.406       .  A
C2445      C2446   1.403       .  A
C2445      H2450   1.082       .  S
C2446      C2447   1.408       .  A
C2446      H2451   1.070       .  S
C2447      C2448   1.409       .  A
C2448      H2452   1.083   1_655  S
C2453      C2454   1.401       .  A
C2453      C2458   1.393       .  A
C2453      H2459   1.083       .  S
C2455      C2456   1.415       .  A
C2455      H2460   1.083       .  S
C2456      C2457   1.412       .  A
C2456      H2461   1.082       .  S
C2458      H2462   1.083   1_655  S
C2463      C2468   1.400       .  A
C2463      H2469   1.082       .  S
C2464      C2465   1.401       .  A
C2465      C2466   1.392       .  A
C2465      H2470   1.082       .  S
C2466      H2471   1.083       .  S
C2467      C2468   1.405       .  A
C2468      H2472   1.081       .  S
C2473      H2475   1.080       .  S
C2473      C2474   1.341       .  D
C2474      H2476   1.087       .  S
C2477      H2479   1.087       .  S
C2478      H2480   1.083       .  S
C2481      C2482   1.402       .  A
C2481      C2486   1.394       .  A
C2481      H2487   1.082       .  S
C2483      C2484   1.405       .  A
C2483      H2488   1.081       .  S
C2484      C2485   1.406       .  A
C2484      H2489   1.079       .  S
C2486      H2490   1.083       .  S
C2491      C2492   1.410       .  A
C2491      C2496   1.410       .  A
C2491      H2497   1.083       .  S
C2492      C2493   1.402       .  A
C2493      C2494   1.391       .  A
C2493      H2498   1.083       .  S
C2494      C2495   1.409       .  A
C2494      H2499   1.083       .  S
C2495      C2496   1.410       .  A
C2496      H2500   1.082       .  S
C2501      C2502   1.404       .  A
C2501      C2506   1.400       .  A
C2502      C2503   1.415       .  A
C2503      C2504   1.424       .  A
C2503      H2508   1.083       .  S
C2504      C2505   1.415       .  A
C2504      H2509   1.082       .  S
C2505      C2506   1.414       .  A
C2511      C2512   1.408       .  A
C2511      C2516   1.400       .  A
C2511      H2517   1.081       .  S
C2512      C2513   1.403       .  A
C2513      C2514   1.399       .  A
C2513      H2518   1.083       .  S
C2514      C2515   1.412       .  A
C2514      H2519   1.083       .  S
C2515      C2516   1.404       .  A
C2516      H2520   1.082       .  S
C2521      C2522   1.337       .  D
C2522      H2524   1.087   1_556  S
C2525      H2527   1.083       .  S
C2525      C2526   1.330       .  D
C2529      C2530   1.409       .  A
C2529      C2534   1.399       .  A
C2529      H2535   1.080       .  S
C2530      C2531   1.402       .  A
C2531      C2532   1.395       .  A
C2532      C2533   1.411       .  A
C2532      H2537   1.083       .  S
C2533      C2534   1.402       .  A
C2534      H2538   1.082       .  S
C2539      C2540   1.411       .  A
C2539      C2544   1.393       .  A
C2539      H2545   1.083       .  S
C2540      C2541   1.414       .  A
C2541      C2542   1.414       .  A
C2541      H2546   1.082       .  S
C2542      C2543   1.408       .  A
C2542      H2547   1.083       .  S
C2543      C2544   1.400       .  A
C2549      H2551   1.086   1_554  S
C2549      C2550   1.339       .  D
C2550      H2552   1.085       .  S
C2553      H2555   1.086       .  S
C2553      C2554   1.333   1_554  D
C2554      H2556   1.085       .  S
C2557      C2558   1.406       .  A
C2557      C2562   1.399       .  A
C2557      H2563   1.079       .  S
C2558      C2559   1.408       .  A
C2559      C2560   1.412       .  A
C2559      H2564   1.082       .  S
C2560      C2561   1.414       .  A
C2560      H2565   1.077       .  S
C2561      C2562   1.407       .  A
C2562      H2566   1.084       .  S
C2567      C2568   1.399       .  A
C2567      C2572   1.394       .  A
C2567      H2573   1.083       .  S
C2568      C2569   1.408       .  A
C2569      C2570   1.398       .  A
C2569      H2574   1.079       .  S
C2570      C2571   1.402       .  A
C2570      H2575   1.082       .  S
C2571      C2572   1.413       .  A
C2572      H2576   1.083       .  S
C2577      H2579   1.087       .  S
C2577      C2578   1.334       .  D
C2581      C2582   1.338       .  D
C2582      H2584   1.086       .  S
C2585      C2586   1.408       .  A
C2585      C2590   1.405       .  A
C2585      H2591   1.080       .  S
C2586      C2587   1.416       .  A
C2587      C2588   1.403       .  A
C2587      H2592   1.082       .  S
C2588      C2589   1.402       .  A
C2589      C2590   1.408       .  A
C2590      H2594   1.081       .  S
C2595      C2596   1.406       .  A
C2595      C2600   1.402       .  A
C2596      C2597   1.399       .  A
C2597      C2598   1.392       .  A
C2597      H2602   1.074       .  S
C2598      C2599   1.399       .  A
C2598      H2603   1.062       .  S
C2599      C2600   1.416       .  A
C2600      H2604   1.082       .  S
C2605      C2606   1.411       .  A
C2605      C2610   1.414       .  A
C2605      H2611   1.082       .  S
C2606      C2607   1.411       .  A
C2607      C2608   1.391       .  A
C2608      C2609   1.401       .  A
C2609      C2610   1.412       .  A
C2610      H2614   1.083       .  S
C2615      C2616   1.403       .  A
C2615      C2620   1.401       .  A
C2615      H2621   1.081       .  S
C2616      C2617   1.413       .  A
C2617      C2618   1.396       .  A
C2617      H2622   1.083       .  S
C2618      C2619   1.399       .  A
C2618      H2623   1.082       .  S
C2619      C2620   1.408       .  A
C2620      H2624   1.079       .  S
C2625      H2627   1.087       .  S
C2626      H2628   1.085   1_565  S
C2629      H2631   1.087       .  S
C2629      C2630   1.338       .  D
C2630      H2632   1.087       .  S
C2633      C2634   1.403       .  A
C2633      C2638   1.405       .  A
C2634      C2635   1.414       .  A
C2635      C2636   1.415       .  A
C2635      H2640   1.080       .  S
C2636      C2637   1.411       .  A
C2636      H2641   1.079       .  S
C2637      C2638   1.420       .  A
C2643      C2644   1.416       .  A
C2643      C2648   1.399       .  A
C2643      H2649   1.082       .  S
C2644      C2645   1.403       .  A
C2645      C2646   1.397       .  A
C2645      H2650   1.061       .  S
C2646      C2647   1.399       .  A
C2646      H2651   1.073       .  S
C2647      C2648   1.405       .  A
C2648      H2652   1.082       .  S
C2653      C2654   1.408       .  A
C2653      C2658   1.415       .  A
C2653      H2659   1.083       .  S
C2654      C2655   1.402       .  A
C2655      C2656   1.393       .  A
C2655      H2660   1.083       .  S
C2656      C2657   1.409       .  A
C2656      H2661   1.083       .  S
C2657      C2658   1.413       .  A
C2658      H2662   1.082       .  S
C2663      H2665   1.086   1_565  S
C2664      H2666   1.085       .  S
C2667      H2669   1.085       .  S
C2668      H2670   1.086       .  S
C2671      C2672   1.399       .  A
C2671      C2676   1.391       .  A
C2671      H2677   1.083       .  S
C2672      C2673   1.407       .  A
C2673      C2674   1.412       .  A
C2673      H2678   1.083       .  S
C2674      C2675   1.414       .  A
C2675      C2676   1.409       .  A
C2676      H2680   1.082       .  S
C2681      C2682   1.401       .  A
C2681      C2686   1.398       .  A
C2681      H2687   1.082       .  S
C2682      C2683   1.411       .  A
C2683      C2684   1.405       .  A
C2683      H2688   1.078       .  S
C2684      C2685   1.403       .  A
C2685      C2686   1.414       .  A
C2686      H2690   1.083       .  S
C2691      C2692   1.403       .  A
C2691      C2696   1.402       .  A
C2691      H2697   1.082       .  S
C2693      C2694   1.392       .  A
C2693      H2698   1.083       .  S
C2694      C2695   1.398       .  A
C2694      H2699   1.083       .  S
C2696      H2700   1.080       .  S
C2701      C2702   1.410       .  A
C2701      C2706   1.390       .  A
C2702      C2703   1.404       .  A
C2703      C2704   1.404       .  A
C2703      H2708   1.082       .  S
C2704      C2705   1.410       .  A
C2704      H2709   1.080       .  S
C2705      C2706   1.399       .  A
C2711      C2712   1.415       .  A
C2711      C2716   1.418       .  A
C2711      H2717   1.082       .  S
C2712      C2713   1.410       .  A
C2713      C2714   1.398       .  A
C2713      H2718   1.083       .  S
C2714      C2715   1.404       .  A
C2715      C2716   1.410       .  A
C2716      H2720   1.083       .  S
C2721      C2722   1.404       .  A
C2721      C2726   1.398       .  A
C2721      H2727   1.082       .  S
C2723      C2724   1.400       .  A
C2723      H2728   1.081       .  S
C2724      C2725   1.404       .  A
C2724      H2729   1.081       .  S
C2726      H2730   1.083       .  S
C2731      C2732   1.417       .  A
C2731      C2736   1.415       .  A
C2731      H2737   1.081       .  S
C2732      C2733   1.412       .  A
C2733      C2734   1.393       .  A
C2733      H2738   1.081       .  S
C2734      C2735   1.399       .  A
C2734      H2739   1.083       .  S
C2735      C2736   1.407       .  A
C2736      H2740   1.083       .  S
C2741      C2742   1.409       .  A
C2741      C2746   1.400       .  A
C2741      H2747   1.081       .  S
C2742      C2743   1.401       .  A
C2743      C2744   1.397       .  A
C2743      H2748   1.082       .  S
C2744      C2745   1.410       .  A
C2744      H2749   1.083       .  S
C2745      C2746   1.404       .  A
C2746      H2750   1.083       .  S
C2751      C2752   1.413       .  A
C2751      H2757   1.081       .  S
C2752      C2753   1.408       .  A
C2753      H2758   1.083       .  S
C2754      C2755   1.404       .  A
C2754      H2759   1.080       .  S
C2755      C2756   1.409       .  A
C2756      H2760   1.082       .  S
C2761      H2763   1.087       .  S
C2761      C2762   1.334       .  D
C2762      H2764   1.087       .  S
C2765      H2767   1.087       .  S
C2766      H2768   1.082       .  S
C2769      C2770   1.406       .  A
C2769      C2774   1.396       .  A
C2769      H2775   1.081       .  S
C2770      C2771   1.401       .  A
C2771      C2772   1.394       .  A
C2771      H2776   1.083       .  S
C2772      C2773   1.412       .  A
C2772      H2777   1.083       .  S
C2773      C2774   1.403       .  A
C2774      H2778   1.081       .  S
C2779      C2780   1.404       .  A
C2779      C2784   1.399       .  A
C2779      H2785   1.084       .  S
C2780      C2781   1.413       .  A
C2781      C2782   1.414       .  A
C2781      H2786   1.081       .  S
C2782      C2783   1.410       .  A
C2782      H2787   1.082       .  S
C2783      C2784   1.411       .  A
C2784      H2788   1.081       .  S
C2789      C2790   1.411       .  A
C2789      H2795   1.075       .  S
C2790      C2791   1.404       .  A
C2791      H2796   1.083       .  S
C2792      C2793   1.415   1_455  A
C2792      H2797   1.082   1_455  S
C2793      C2794   1.407       .  A
C2794      H2798   1.082       .  S
C2799      C2800   1.420       .  A
C2799      C2804   1.395       .  A
C2799      H2805   1.082       .  S
C2800      C2801   1.407       .  A
C2801      C2802   1.399       .  A
C2801      H2806   1.050       .  S
C2802      C2803   1.399       .  A
C2802      H2807   1.080       .  S
C2803      C2804   1.399       .  A
C2804      H2808   1.083       .  S
