geometry optimzed in LAMMPS
_audit_creation_date              2020-11-30 
_audit_creation_method            'lammps2cif' 
_symmetry_space_group_name_H-M    'P1' 
_symmetry_Int_Tables_number       1 
_symmetry_cell_setting            triclinic 
loop_ 
_symmetry_equiv_pos_as_xyz 
  x,y,z 
_cell_length_a                    41.66099056 
_cell_length_b                    41.54163999139583 
_cell_length_c                    83.01354103266745 
_cell_angle_alpha                 90.23707853115638 
_cell_angle_beta                  89.9102888424903 
_cell_angle_gamma                 120.13144766555521 
loop_ 
_atom_site_label 
_atom_site_type_symbol 
_atom_site_fract_x 
_atom_site_fract_y 
_atom_site_fract_z 
_atom_site_charge 
O1          O  0.10018410  0.30346969  0.32981356    -0.88400
C2          C  0.18431919  0.36974204  0.29901842     0.87700
Mg3        Mg  0.09355957  0.32201176  0.35337283     1.58100
O4          O  0.19345294  0.29939614  0.31844827    -0.88100
O5          O  0.10540364  0.25855738  0.31869198    -0.75400
C6          C  0.26038582  0.39837951  0.38711557     0.92700
O7          O  0.13970589  0.39184948  0.32597239    -0.75200
O8          O  0.23165091  0.40183154  0.38761794    -0.82700
Mg9        Mg  0.10771327  0.34000482  0.30984039     1.58000
C10         C  0.29661657  0.32861916  0.33843777     0.92600
O11         O  0.07447420  0.29384923  0.29089134    -0.81000
H12         H  0.17429890  0.24577282  0.32349826    -0.06300
C13         C  0.24935045  0.40263294  0.33972010     0.87600
O14         O  0.12188344  0.29368931  0.36584094    -0.75500
O15         O  0.15788177  0.33993881  0.30361411    -0.88300
O16         O  0.28051750  0.32633996  0.32510698    -0.81100
C17         C  0.23103609  0.31479548  0.27862765     0.92800
C18         C  0.08057029  0.27525350  0.28023711     0.92600
Mg19       Mg  0.23126211  0.33318675  0.35811397     1.58000
O20         O  0.26531836  0.38040521  0.37584110    -0.81000
O21         O  0.19878564  0.28076197  0.34242411    -0.75200
O22         O  0.19633504  0.30334666  0.27955031    -0.81100
O23         O  0.05427192  0.33950920  0.31636327    -0.82800
O24         O  0.14296024  0.37005666  0.38870300    -0.81100
C25         C  0.18855789  0.27422532  0.32778741     0.87100
O26         O  0.18135784  0.33326852  0.36456557    -0.88300
O27         O  0.23857954  0.36913692  0.33821152    -0.88400
O28         O  0.23376440  0.41422372  0.34943720    -0.75400
Mg29       Mg  0.15246109  0.28567607  0.30004053     1.58000
O30         O  0.25261572  0.33052246  0.29052060    -0.82800
H31         H  0.06651600  0.25006370  0.33550922    -0.06500
O32         O  0.14540059  0.37346687  0.34996063    -0.88100
H33         H  0.16400049  0.42696614  0.34487819    -0.06300
H34         H  0.16089166  0.28475397  0.37610060    -0.06500
C35         C  0.14998343  0.39850144  0.34060529     0.87000
C36         C  0.08945835  0.27000413  0.32826545     0.87600
C37         C  0.15519704  0.30347455  0.36930303     0.87700
H38         H  0.27208704  0.42248581  0.33235980    -0.06500
O39         O  0.21755127  0.37910823  0.30248610    -0.75500
Mg40       Mg  0.18704454  0.38747284  0.36831961     1.58000
H41         H  0.17895625  0.38879268  0.29230074    -0.06500
C42         C  0.04166574  0.34314340  0.32982533     0.92700
O43         O  0.08622371  0.34175687  0.37805370    -0.82800
C44         C  0.10815758  0.35816952  0.38980774     0.92700
O45         O  0.10885160  0.27119762  0.28086957    -0.82700
Mg46       Mg  0.24540283  0.35018750  0.31494237     1.58200
O47         O  0.05718227  0.34378330  0.34312239    -0.81100
O48         O  0.28470513  0.33405077  0.35169786    -0.82800
C49         C  0.31869644  0.19570274  0.20041090    -0.10900
C50         C  0.30818708  0.16142096  0.20767218    -0.04700
C51         C  0.32000600  0.13748351  0.20167984    -0.10800
C52         C  0.34262418  0.14785928  0.18768488     0.10100
C53         C  0.35297847  0.18230202  0.18000424    -0.02600
C54         C  0.34106205  0.20633186  0.18640813     0.09900
C55         C  0.35163040  0.24024175  0.17860625    -0.12600
C56         C  0.37333445  0.25038607  0.16469645    -0.12600
C57         C  0.38544814  0.22711179  0.15814441     0.09900
C58         C  0.37532469  0.19277707  0.16587695    -0.02600
C59         C  0.35470863  0.12456917  0.18101936    -0.12800
C60         C  0.37640872  0.13472463  0.16708472    -0.12800
C61         C  0.38688337  0.16856756  0.15930659     0.10100
C62         C  0.40880195  0.17914639  0.14515042    -0.10800
C63         C  0.41921979  0.21339633  0.13802848    -0.04700
C64         C  0.40749498  0.23712834  0.14405116    -0.10900
H65         H  0.34292441  0.25912984  0.18314626     0.07400
H66         H  0.38072866  0.27674092  0.15912364     0.07400
H67         H  0.34723051  0.09809289  0.18647410     0.07500
H68         H  0.38508713  0.11587794  0.16246381     0.07500
H69         H  0.29141597  0.15374614  0.21851889     0.04000
H70         H  0.43503358  0.22080228  0.12689396     0.04000
C71         C  0.90181965  0.16381061  0.19020206    -0.10900
C72         C  0.87713782  0.13047201  0.19780401    -0.04700
C73         C  0.84165386  0.10673818  0.19176020    -0.10800
C74         C  0.83043184  0.11591821  0.17720880     0.10100
C75         C  0.85541573  0.14945378  0.16909972    -0.02600
C76         C  0.89117744  0.17364580  0.17568798     0.09900
C77         C  0.91526175  0.20679690  0.16758979    -0.12600
C78         C  0.90437789  0.21641199  0.15336739    -0.12600
C79         C  0.86907679  0.19310935  0.14666172     0.09900
C80         C  0.84439528  0.15915160  0.15453655    -0.02600
C81         C  0.79515781  0.09261700  0.17054372    -0.12800
C82         C  0.78449420  0.10192188  0.15614896    -0.12800
C83         C  0.80860833  0.13504119  0.14797019     0.10100
C84         C  0.79775256  0.14509084  0.13353495    -0.10800
C85         C  0.82214766  0.17903150  0.12614766    -0.04700
C86         C  0.85751319  0.20309319  0.13242551    -0.10900
H87         H  0.94278075  0.22560420  0.17222094     0.07400
H88         H  0.92387824  0.24242967  0.14769029     0.07400
H89         H  0.77558428  0.06689097  0.17641219     0.07500
H90         H  0.75697540  0.08305766  0.15153706     0.07500
H91         H  0.88514502  0.12359915  0.20915578     0.04000
H92         H  0.81360843  0.18666826  0.11514909     0.04000
O93         O  0.24022883  0.87003994  0.33645528    -0.88400
C94         C  0.15003315  0.83366942  0.36651251     0.87700
Mg95       Mg  0.24732465  0.90101919  0.31454104     1.58100
O96         O  0.15271024  0.76232721  0.34452970    -0.88100
O97         O  0.23937738  0.82000026  0.34541048    -0.75400
C98         C  0.08594769  0.79864956  0.27727801     0.92700
O99         O  0.19068867  0.90807743  0.34269509    -0.75200
O100        O  0.11181933  0.83262536  0.27779041    -0.82700
Mg101      Mg  0.22578577  0.89025532  0.35751368     1.58000
C102        C  0.05590923  0.68512727  0.32010972     0.92600
O103        O  0.26150723  0.87856873  0.37428261    -0.81000
H104        H  0.17859600  0.73464503  0.33827625    -0.06300
C105        C  0.09089569  0.80401916  0.32474278     0.87600
O106        O  0.22727282  0.84787256  0.29939480    -0.75500
O107        O  0.17879821  0.83540433  0.36153303    -0.88300
O108        O  0.06770499  0.69607823  0.33441942    -0.81100
C109        C  0.11192116  0.73026636  0.38341543     0.92800
C110        C  0.26002077  0.85472260  0.38426321     0.92600
Mg111      Mg  0.12020921  0.76393865  0.30446896     1.58000
O112        O  0.08457140  0.77485674  0.28726558    -0.81000
O113        O  0.15502914  0.74644547  0.31954731    -0.75200
O114        O  0.14599089  0.75619684  0.38292832    -0.81100
O115        O  0.27649832  0.94772655  0.35400557    -0.82800
O116        O  0.19893958  0.89939520  0.27917081    -0.81100
C117        C  0.16233564  0.74690421  0.33442214     0.87100
O118        O  0.16680340  0.81912962  0.30045659    -0.88300
O119        O  0.10481272  0.78385958  0.32540096    -0.88400
O120        O  0.10501197  0.83336090  0.31622846    -0.75400
Mg121      Mg  0.19134141  0.79082662  0.36367745     1.58000
O122        O  0.09033568  0.72310071  0.37136877    -0.82800
H123        H  0.27761058  0.85601999  0.32956038    -0.06500
O124        O  0.19175955  0.89159339  0.31768906    -0.88100
H125        H  0.16600001  0.91926328  0.32420412    -0.06300
H126        H  0.19386989  0.79970590  0.28741372    -0.06500
C127        C  0.18246356  0.90710828  0.32789685     0.87000
C128        C  0.25359071  0.84935268  0.33688158     0.87600
C129        C  0.19562471  0.82132712  0.29528795     0.87700
H130        H  0.06648053  0.79691364  0.33185801    -0.06500
O131        O  0.11828378  0.80734205  0.36236357    -0.75500
Mg132      Mg  0.15351061  0.86323311  0.29827635     1.58000
H133        H  0.15194222  0.85558313  0.37423611    -0.06500
C134        C  0.28940440  0.96915337  0.34189748     0.92700
O135        O  0.25385627  0.93249463  0.29129205    -0.82800
C136        C  0.23265824  0.92620505  0.27920209     0.92700
O137        O  0.23368547  0.82097597  0.38393463    -0.82700
Mg138      Mg  0.09737933  0.75357388  0.34757152     1.58200
O139        O  0.27625105  0.95828985  0.32777235    -0.81100
O140        O  0.07009710  0.70636066  0.30801262    -0.82800
O141        O  0.65121118  0.77006108  0.34279924    -0.88400
C142        C  0.70936570  0.86221627  0.37100914     0.87700
Mg143      Mg  0.67238754  0.76331366  0.32011785     1.58100
O144        O  0.63366219  0.85762106  0.35009950    -0.88100
O145        O  0.60264108  0.77040408  0.35259161    -0.75400
C146        C  0.73215701  0.92365120  0.28136742     0.92700
O147        O  0.73936885  0.81906446  0.34701090    -0.75200
O148        O  0.73963703  0.89757450  0.28271047    -0.82700
Mg149      Mg  0.68808294  0.78482944  0.36300148     1.58000
C150        C  0.64957793  0.95364652  0.32576480     0.92600
O151        O  0.64257175  0.75006425  0.38137052    -0.81000
H152        H  0.57955823  0.83161347  0.34477566    -0.06300
C153        C  0.73539324  0.92124728  0.32904538     0.87600
O154        O  0.63818026  0.78366499  0.30640776    -0.75500
O155        O  0.68152670  0.83251228  0.36720279    -0.88300
O156        O  0.65000972  0.94168699  0.33987940    -0.81100
C157        C  0.64562472  0.90076590  0.38876088     0.92800
C158        C  0.62114959  0.75307588  0.39147427     0.92600
Mg159      Mg  0.66447884  0.89126002  0.30955061     1.58000
O160        O  0.71027344  0.92673686  0.29118797    -0.81000
O161        O  0.61340257  0.85648272  0.32564072    -0.75200
O162        O  0.63879700  0.86712653  0.38885877    -0.81100
O163        O  0.69289561  0.73342751  0.35844346    -0.82800
O164        O  0.71398998  0.81132497  0.28458325    -0.81100
C165        C  0.60775951  0.84814964  0.34049537     0.87100
O166        O  0.67171100  0.84448009  0.30580284    -0.88300
O167        O  0.70133975  0.90704619  0.32989965    -0.88400
O168        O  0.75030852  0.90652376  0.32075636    -0.75400
Mg169      Mg  0.62476424  0.82040015  0.36994542     1.58000
O170        O  0.65761745  0.92088686  0.37620794    -0.82800
H171        H  0.59942109  0.73074541  0.33721994    -0.06500
O172        O  0.71874184  0.81909512  0.32278764    -0.88100
H173        H  0.77294314  0.84371032  0.32777888    -0.06300
H174        H  0.62270858  0.81640243  0.29462542    -0.06500
C175        C  0.74480279  0.82769783  0.33219336     0.87000
C176        C  0.61720205  0.75578114  0.34398510     0.87600
C177        C  0.64369204  0.81514587  0.30179410     0.87700
H178        H  0.75288107  0.94620354  0.33591394    -0.06500
O179        O  0.71400334  0.89341259  0.36638678    -0.75500
Mg180      Mg  0.72833954  0.85689764  0.30332531     1.58000
H181        H  0.73076100  0.86160060  0.37812486    -0.06500
C182        C  0.70037975  0.72108657  0.34578590     0.92700
O183        O  0.69340817  0.75593323  0.29594424    -0.82800
C184        C  0.70597321  0.77746274  0.28383425     0.92700
O185        O  0.61393646  0.77945917  0.39058593    -0.82700
Mg186      Mg  0.67968385  0.91360243  0.35237643     1.58200
O187        O  0.70266079  0.73538366  0.33196771    -0.81100
O188        O  0.65704775  0.94075735  0.31331614    -0.82800
C189        C  0.88118951  0.70506356  0.19717257    -0.10900
C190        C  0.85758336  0.71524147  0.20472072    -0.04700
C191        C  0.82326790  0.70609269  0.19811009    -0.10800
C192        C  0.81248888  0.68751397  0.18312822     0.10100
C193        C  0.83578049  0.67632541  0.17540576    -0.02600
C194        C  0.87007559  0.68460803  0.18255866     0.09900
C195        C  0.89208684  0.67221225  0.17492752    -0.12600
C196        C  0.88065177  0.65203431  0.16050461    -0.12600
C197        C  0.84716351  0.64418734  0.15306026     0.09900
C198        C  0.82460233  0.65664957  0.16055467    -0.02600
C199        C  0.77917533  0.68002680  0.17566711    -0.12800
C200        C  0.76887690  0.66194944  0.16081588    -0.12800
C201        C  0.79103114  0.64984018  0.15313434     0.10100
C202        C  0.78064482  0.63121923  0.13815291    -0.10800
C203        C  0.80238266  0.61804949  0.13119997    -0.04700
C204        C  0.83530402  0.62408233  0.13835386    -0.10900
H205        H  0.91824637  0.67787703  0.18012437     0.07400
H206        H  0.89836608  0.64276700  0.15516933     0.07400
H207        H  0.76102629  0.68854988  0.18117506     0.07500
H208        H  0.74312321  0.65710834  0.15547321     0.07500
H209        H  0.86569205  0.72978306  0.21620239     0.04000
H210        H  0.79409445  0.60382442  0.11965217     0.04000
O211        O  0.46314708  0.03345602  0.00647485    -0.88400
C212        C  0.48525742  0.97066314  0.03710441     0.87700
Mg213      Mg  0.43581013  0.01200885  0.98363499     1.58100
O214        O  0.56309267  0.04079290  0.01646433    -0.88100
O215        O  0.51401802  0.07981613  0.01641254    -0.75400
C216        C  0.52784319  0.93930151  0.94810787     0.92700
O217        O  0.41624957  0.94524292  0.01162554    -0.75200
O218        O  0.49489714  0.93384722  0.94886834    -0.82700
Mg219      Mg  0.43651735  0.99836521  0.02701140     1.58000
C220        C  0.63729879  0.01275744  0.99550173     0.92600
O221        O  0.45007147  0.04581730  0.04501914    -0.81000
H222        H  0.59639105  0.09440042  0.01100254    -0.06300
C223        C  0.51705962  0.93675246  0.99594647     0.87600
O224        O  0.49130371  0.04138865  0.97007598    -0.75500
O225        O  0.48777962  0.00003192  0.03245640    -0.88300
O226        O  0.62265306  0.01224361  0.00904786    -0.81100
C227        C  0.58824710  0.02816985  0.05608450     0.92800
C228        C  0.47516187  0.06553158  0.05528761     0.92600
Mg229      Mg  0.56554419  0.00658118  0.97661563     1.58000
O230        O  0.55257979  0.95949826  0.95844138    -0.81000
O231        O  0.58508017  0.05904346  0.99215696    -0.75200
O232        O  0.56489589  0.03950142  0.05521114    -0.81100
O233        O  0.38271434  0.99761360  0.02138602    -0.82800
O234        O  0.43616189  0.96292855  0.94857219    -0.81100
C235        C  0.58238633  0.06582588  0.00687121     0.87100
O236        O  0.51371932  0.00382825  0.97112444    -0.88300
O237        O  0.53889802  0.97053262  0.99703266    -0.88400
O238        O  0.48868730  0.92378343  0.98692362    -0.75400
Mg239      Mg  0.53627536  0.05492386  0.03504989     1.58000
O240        O  0.59341425  0.01152393  0.04432121    -0.82800
H241        H  0.48162184  0.08617499  0.99996597    -0.06500
O242        O  0.43924298  0.96250355  0.98739825    -0.88100
H243        H  0.40544116  0.90911487  0.99310414    -0.06300
H244        H  0.53903928  0.05179445  0.95902150    -0.06500
C245        C  0.41957585  0.93782085  0.99705902     0.87000
C246        C  0.48566717  0.06713749  0.00735963     0.87600
C247        C  0.51557083  0.03277876  0.96627055     0.87700
H248        H  0.52167639  0.91786647  0.00317855    -0.06500
O249        O  0.50919025  0.96165231  0.03326474    -0.75500
Mg250      Mg  0.46583718  0.94841051  0.96855549     1.58000
H251        H  0.46144491  0.95161303  0.04417458    -0.06500
C252        C  0.36457110  0.99041381  0.00827193     0.92700
O253        O  0.40644799  0.98928547  0.95980217    -0.82800
C254        C  0.41163089  0.97276346  0.94800902     0.92700
O255        O  0.50769641  0.07003337  0.05447452    -0.82700
Mg256      Mg  0.56512431  0.99034771  0.02010219     1.58200
O257        O  0.37803331  0.98749870  0.99493032    -0.81100
O258        O  0.62051199  0.00925396  0.98223077    -0.82800
O259        O  0.53996914  0.57355091  0.99483445    -0.88400
C260        C  0.50800053  0.48380923  0.96511355     0.87700
Mg261      Mg  0.57020325  0.58058503  0.01680368     1.58100
O262        O  0.43565752  0.48237850  0.98753949    -0.88100
O263        O  0.48878339  0.57049616  0.98633063    -0.75400
C264        C  0.47679433  0.41688532  0.05369451     0.92700
O265        O  0.58146868  0.52705585  0.98838329    -0.75200
O266        O  0.50961227  0.44453098  0.05252690    -0.82700
Mg267      Mg  0.56124594  0.56032535  0.97376112     1.58000
C268        C  0.36062851  0.38200944  0.01055152     0.92600
O269        O  0.54785074  0.59493301  0.95676015    -0.81000
H270        H  0.40469274  0.50467914  0.99394516    -0.06300
C271        C  0.48050644  0.42258734  0.00615501     0.87600
O272        O  0.51612806  0.55674435  0.03153766    -0.75500
O273        O  0.50807410  0.51194899  0.97002937    -0.88300
O274        O  0.37196260  0.39642932  0.99667378    -0.81100
C275        C  0.40627350  0.44183553  0.94840439     0.92800
C276        C  0.52291209  0.59116701  0.94685158     0.92600
Mg277      Mg  0.43693402  0.44696712  0.02702680     1.58000
O278        O  0.45111245  0.41257902  0.04407532    -0.81000
O279        O  0.41659927  0.48023508  0.01231272    -0.75200
O280        O  0.43106729  0.47621341  0.94911753    -0.81100
O281        O  0.61690319  0.61163218  0.97737084    -0.82800
O282        O  0.56794962  0.53207689  0.05171383    -0.81100
C283        C  0.41820885  0.48947165  0.99762971     0.87100
O284        O  0.49029415  0.49604663  0.03087094    -0.88300
O285        O  0.45896925  0.43488237  0.00596510    -0.88400
O286        O  0.51035499  0.43821264  0.01429419    -0.75400
Mg287      Mg  0.46200611  0.52172312  0.96827833     1.58000
O288        O  0.39886895  0.42030024  0.96041943    -0.82800
H289        H  0.52473976  0.61004547  0.00185635    -0.06500
O290        O  0.56313480  0.52605606  0.01316346    -0.88100
H291        H  0.59378448  0.50333399  0.00689656    -0.06300
H292        H  0.46849661  0.52173865  0.04335188    -0.06500
C293        C  0.58030479  0.51851419  0.00312238     0.87000
C294        C  0.51851340  0.58596204  0.99457190     0.87600
C295        C  0.49073911  0.52445640  0.03569929     0.87700
H296        H  0.47428627  0.39852670  0.99885618    -0.06500
O297        O  0.48309864  0.45142815  0.96934378    -0.75500
Mg298      Mg  0.53688540  0.48682369  0.03235829     1.58000
H299        H  0.53032083  0.48689337  0.95741530    -0.06500
C300        C  0.63807234  0.62502142  0.98952960     0.92700
O301        O  0.60124197  0.58762133  0.04020141    -0.82800
C302        C  0.59373312  0.56610849  0.05224926     0.92700
O303        O  0.48977195  0.56394119  0.94782090    -0.82700
Mg304      Mg  0.42917258  0.42788329  0.98394772     1.58200
O305        O  0.62737594  0.61222098  0.00370820    -0.81100
O306        O  0.38112621  0.39449160  0.02299630    -0.82800
O307        O  0.02637994  0.45751124  0.99494392    -0.88400
C308        C  0.96608105  0.48466013  0.96529348     0.87700
Mg309      Mg  0.00687331  0.43202985  0.01815452     1.58100
O310        O  0.04099084  0.55948147  0.98529918    -0.88100
O311        O  0.07440386  0.50521585  0.98411418    -0.75400
C312        C  0.94379706  0.53347277  0.05460097     0.92700
O313        O  0.93817917  0.41683277  0.99127465    -0.75200
O314        O  0.93668748  0.49976304  0.05431048    -0.82700
Mg315      Mg  0.98856999  0.43218650  0.97497478     1.58000
C316        C  0.02209250  0.64015854  0.00690066     0.92600
O317        O  0.03338474  0.44102683  0.95640172    -0.81000
H318        H  0.09506253  0.58939518  0.99053838    -0.06300
C319        C  0.93921763  0.52072205  0.00726487     0.87600
O320        O  0.03964711  0.48817511  0.03118035    -0.75500
O321        O  0.99468194  0.48502213  0.96947898    -0.88300
O322        O  0.02048525  0.62456040  0.99344307    -0.81100
C323        C  0.02722641  0.58546178  0.94607373     0.92800
C324        C  0.05439325  0.46422055  0.94578886     0.92600
Mg325      Mg  0.01077073  0.56664077  0.02582688     1.58000
O326        O  0.96532670  0.55723977  0.04426032    -0.81000
O327        O  0.06123213  0.58169410  0.00953420    -0.75200
O328        O  0.03646833  0.56045380  0.94662893    -0.81100
O329        O  0.98241320  0.37628201  0.98030156    -0.82800
O330        O  0.96269923  0.43699420  0.05438506    -0.81100
C331        C  0.06683910  0.57755372  0.99479716     0.87100
O332        O  0.00458748  0.51346825  0.03142982    -0.88300
O333        O  0.97314442  0.54083222  0.00583001    -0.88400
O334        O  0.92520708  0.49257231  0.01645557    -0.75400
Mg335      Mg  0.05100398  0.53010013  0.96610871     1.58000
O336        O  0.01307431  0.59273071  0.95816221    -0.82800
H337        H  0.07841252  0.47107902  0.00039660    -0.06500
O338        O  0.95852525  0.43820674  0.01557381    -0.88100
H339        H  0.90443852  0.40840901  0.01037787    -0.06300
H340        H  0.05388646  0.53698003  0.04243751    -0.06500
C341        C  0.93264087  0.42038956  0.00607200     0.87000
C342        C  0.06030800  0.47724305  0.99339519     0.87600
C343        C  0.03319704  0.51371280  0.03550629     0.87700
H344        H  0.92103271  0.52666659  0.00020529    -0.06500
O345        O  0.95942812  0.51004599  0.96960680    -0.75500
Mg346      Mg  0.94835632  0.46773570  0.03463357     1.58000
H347        H  0.94554242  0.46137213  0.95832266    -0.06500
C348        C  0.97826355  0.35840352  0.99324610     0.92700
O349        O  0.98658650  0.40541493  0.04255069    -0.82800
C350        C  0.97227597  0.41215057  0.05474698     0.92700
O351        O  0.06189654  0.49805035  0.94603337    -0.82700
Mg352      Mg  0.99284216  0.56598795  0.98259065     1.58200
O353        O  0.98037415  0.37296911  0.00705990    -0.81100
O354        O  0.01726526  0.62332877  0.02023557    -0.82800
O355        O  0.29345931  0.08926153  0.66822046    -0.88400
C356        C  0.35792718  0.17612694  0.69783186     0.87700
Mg357      Mg  0.31040960  0.08427353  0.64438717     1.58100
O358        O  0.28373150  0.17875215  0.67880771    -0.88100
O359        O  0.24688805  0.09030293  0.67966446    -0.75400
C360        C  0.37962897  0.24866200  0.60936385     0.92700
O361        O  0.38208320  0.13429664  0.67079012    -0.75200
O362        O  0.38409762  0.22056456  0.60956750    -0.82700
Mg363      Mg  0.33257674  0.09990063  0.68753206     1.58000
C364        C  0.30749371  0.28172963  0.65913939     0.92600
O365        O  0.28841072  0.06456503  0.70697551    -0.81000
H366        H  0.22972864  0.15780488  0.67417379    -0.06300
C367        C  0.38519455  0.24025411  0.65692941     0.87600
O368        O  0.27830120  0.10968306  0.63289432    -0.75500
O369        O  0.32873651  0.14802738  0.69377360    -0.88300
O370        O  0.30304923  0.26362263  0.67208551    -0.81100
C371        C  0.29963416  0.21730338  0.71866273     0.92800
C372        C  0.26932300  0.06935140  0.71783449     0.92600
Mg373      Mg  0.31468850  0.21894310  0.63887841     1.58000
O374        O  0.36044875  0.25355062  0.62010796    -0.81000
O375        O  0.26359475  0.18481865  0.65527036    -0.75200
O376        O  0.29034325  0.18307384  0.71766185    -0.81100
O377        O  0.33752510  0.04924071  0.68059373    -0.82800
O378        O  0.35328150  0.13381133  0.60862031    -0.81100
C379        C  0.25790166  0.17323424  0.66974518     0.87100
O380        O  0.31621334  0.16990592  0.63248391    -0.88300
O381        O  0.35152021  0.22767397  0.65853226    -0.88400
O382        O  0.39773963  0.22541784  0.64730309    -0.75400
Mg383      Mg  0.27334861  0.13877917  0.69764935     1.58000
O384        O  0.31287337  0.23901704  0.70666112    -0.82800
H385        H  0.24079918  0.05126949  0.66326364    -0.06500
O386        O  0.35984247  0.13764702  0.64735487    -0.88100
H387        H  0.41420202  0.15949244  0.65126538    -0.06300
H388        H  0.26563781  0.14614253  0.62263284    -0.06500
C389        C  0.38640524  0.14407850  0.65610878     0.87000
C390        C  0.25974894  0.07559809  0.67016884     0.87600
C391        C  0.28623168  0.14228695  0.62885701     0.87700
H392        H  0.40435540  0.26386256  0.66414797    -0.06500
O393        O  0.36486091  0.20859817  0.69405657    -0.75500
Mg394      Mg  0.37115365  0.17764520  0.62883176     1.58000
H395        H  0.37862887  0.17290840  0.70431032    -0.06500
C396        C  0.34077644  0.03814504  0.66666966     0.92700
O397        O  0.32802670  0.07742537  0.61938055    -0.82800
C398        C  0.34228755  0.09921127  0.60746143     0.92700
O399        O  0.26302497  0.09635263  0.71721155    -0.82700
Mg400      Mg  0.33212305  0.23286059  0.68197803     1.58200
O401        O  0.33694059  0.05222846  0.65377057    -0.81100
O402        O  0.31486358  0.27172555  0.64579775    -0.82800
C403        C  0.15857426  0.36822132  0.86254771    -0.10900
C404        C  0.19050041  0.37417061  0.87064994    -0.04700
C405        C  0.21489961  0.36408151  0.86388796    -0.10800
C406        C  0.20777077  0.34772817  0.84842740     0.10100
C407        C  0.17548918  0.34131047  0.83996038    -0.02600
C408        C  0.15055534  0.35132481  0.84705759     0.09900
C409        C  0.11861581  0.34426043  0.83845691    -0.12600
C410        C  0.11129878  0.32778889  0.82315667    -0.12600
C411        C  0.13582809  0.31809151  0.81587538     0.09900
C412        C  0.16828809  0.32498948  0.82434253    -0.02600
C413        C  0.23220587  0.33787654  0.84121192    -0.12800
C414        C  0.22531859  0.32221591  0.82585488    -0.12800
C415        C  0.19363434  0.31562579  0.81721149     0.10100
C416        C  0.18654707  0.29988386  0.80159511    -0.10800
C417        C  0.15450145  0.29321293  0.79344357    -0.04700
C418        C  0.12902852  0.30175860  0.80032584    -0.10900
H419        H  0.09906138  0.35145696  0.84352528     0.07400
H420        H  0.08635219  0.32291933  0.81699574     0.07400
H421        H  0.25702905  0.34239407  0.84737217     0.07500
H422        H  0.24505425  0.31525533  0.82079736     0.07500
H423        H  0.19651169  0.38695544  0.88252027     0.04000
H424        H  0.14913569  0.28085176  0.78149522     0.04000
C425        C  0.14669780  0.79168257  0.86779136    -0.10900
C426        C  0.18047170  0.81620120  0.87522955    -0.04700
C427        C  0.20521712  0.85086955  0.86854567    -0.10800
C428        C  0.19624770  0.86146629  0.85375860     0.10100
C429        C  0.16213602  0.83677305  0.84599208    -0.02600
C430        C  0.13726860  0.80176233  0.85303101     0.09900
C431        C  0.10387187  0.77761720  0.84505282    -0.12600
C432        C  0.09482912  0.78763962  0.83047466    -0.12600
C433        C  0.11884670  0.82216175  0.82334056     0.09900
C434        C  0.15289056  0.84702519  0.83112133    -0.02600
C435        C  0.22051244  0.89579292  0.84645132    -0.12800
C436        C  0.21157537  0.90571995  0.83175907    -0.12800
C437        C  0.17793020  0.88181959  0.82391898     0.10100
C438        C  0.16846091  0.89146538  0.80902020    -0.10800
C439        C  0.13441277  0.86701898  0.80182519    -0.04700
C440        C  0.10979330  0.83258908  0.80860003    -0.10900
H441        H  0.08444071  0.75065853  0.85001841     0.07400
H442        H  0.06873594  0.76810496  0.82483225     0.07400
H443        H  0.24675657  0.91518013  0.85201906     0.07500
H444        H  0.23115543  0.93239502  0.82659217     0.07500
H445        H  0.18741680  0.80834483  0.88659059     0.04000
H446        H  0.12754975  0.87433443  0.79030366     0.04000
O447        O  0.89159922  0.20971918  0.67217859    -0.88400
C448        C  0.81320202  0.19384098  0.70581776     0.87700
Mg449      Mg  0.89416354  0.23124187  0.64837937     1.58100
O450        O  0.80318206  0.11319296  0.68685971    -0.88100
O451        O  0.89097665  0.16259238  0.68398194    -0.75400
C452        C  0.72336927  0.13472489  0.61953948     0.92700
O453        O  0.85086304  0.25713676  0.67691788    -0.75200
O454        O  0.75156205  0.16734137  0.61859989    -0.82700
Mg455      Mg  0.88685395  0.24110093  0.69202591     1.58000
C456        C  0.69961934  0.03413999  0.66972037     0.92600
O457        O  0.92486379  0.23188959  0.70919945    -0.81000
H458        H  0.82348630  0.08009910  0.68112029    -0.06300
C459        C  0.74162252  0.15549302  0.66677955     0.87600
O460        O  0.86512292  0.17321946  0.63707838    -0.75500
O461        O  0.83913214  0.19083463  0.70032238    -0.88300
O462        O  0.71534780  0.05141480  0.68263192    -0.81100
C463        C  0.77235236  0.09263133  0.72736560     0.92800
C464        C  0.92270552  0.20973275  0.72031112     0.92600
Mg465      Mg  0.75879422  0.10325493  0.64797523     1.58000
O466        O  0.72031830  0.11222125  0.63068951    -0.81000
O467        O  0.79535002  0.08758630  0.66296559    -0.75200
O468        O  0.80652789  0.11742722  0.72566859    -0.81100
O469        O  0.93771411  0.29463008  0.68361560    -0.82800
O470        O  0.83903361  0.22496362  0.61456915    -0.81100
C471        C  0.80765896  0.09286100  0.67730873     0.87100
O472        O  0.80605879  0.15318106  0.63996022    -0.88300
O473        O  0.75330364  0.13355843  0.66809374    -0.88400
O474        O  0.75511643  0.18161903  0.65651979    -0.75400
Mg475      Mg  0.84709566  0.14365848  0.70398801     1.58000
O476        O  0.74866454  0.08594489  0.71629977    -0.82800
H477        H  0.92619592  0.19170136  0.66580615    -0.06500
O478        O  0.84281249  0.23071680  0.65319919    -0.88100
H479        H  0.82337000  0.26474712  0.65852908    -0.06300
H480        H  0.82476897  0.12415844  0.62791391    -0.06500
C481        C  0.83876364  0.25167456  0.66254197     0.87000
C482        C  0.90412059  0.18856271  0.67368222     0.87600
C483        C  0.83144044  0.14928305  0.63448662     0.87700
H484        H  0.71993831  0.15286857  0.67477840    -0.06500
O485        O  0.77967068  0.16897338  0.70340165    -0.75500
Mg486      Mg  0.79868043  0.20034467  0.63627531     1.58000
H487        H  0.81919060  0.21875739  0.71240077    -0.06500
C488        C  0.94802578  0.30810978  0.66957314     0.92700
O489        O  0.89723972  0.25479721  0.62354923    -0.82800
C490        C  0.87355945  0.24792517  0.61246716     0.92700
O491        O  0.89456272  0.17711284  0.72164872    -0.82700
Mg492      Mg  0.75110787  0.11092296  0.69176614     1.58200
O493        O  0.93128133  0.29035001  0.65692970    -0.81100
O494        O  0.70925869  0.04942504  0.65597316    -0.82800
O495        O  0.76408703  0.63914800  0.66209695    -0.88400
C496        C  0.85377076  0.70103019  0.63310679     0.87700
Mg497      Mg  0.75649094  0.65845703  0.68495475     1.58100
O498        O  0.85535663  0.62699001  0.65288289    -0.88100
O499        O  0.76780009  0.59224785  0.65217724    -0.75400
C500        C  0.91776683  0.71971708  0.72284779     0.92700
O501        O  0.81074879  0.72848990  0.65852813    -0.75200
O502        O  0.89107038  0.72639644  0.72215818    -0.82700
Mg503      Mg  0.77764459  0.67738079  0.64218565     1.58000
C504        C  0.95415336  0.64812858  0.67542014     0.92600
O505        O  0.74367245  0.63186208  0.62384913    -0.81000
H506        H  0.83281831  0.57249298  0.65695133    -0.06300
C507        C  0.91468761  0.72829240  0.67507251     0.87600
O508        O  0.77958879  0.62620391  0.69843973    -0.75500
O509        O  0.82570407  0.67249874  0.63762385    -0.88300
O510        O  0.94234538  0.65072240  0.66159314    -0.81100
C511        C  0.89422057  0.64027892  0.61358316     0.92800
C512        C  0.74684643  0.61059416  0.61369525     0.92600
Mg513      Mg  0.88811609  0.65555498  0.69319143     1.58000
O514        O  0.92200216  0.70000856  0.71217639    -0.81000
O515        O  0.85529508  0.60495570  0.67674501    -0.75200
O516        O  0.86051851  0.63255361  0.61453402    -0.81100
O517        O  0.72615979  0.68188890  0.64643373    -0.82800
O518        O  0.80372267  0.70084756  0.72129497    -0.81100
C519        C  0.84765809  0.60041731  0.66183268     0.87100
O520        O  0.83994159  0.66069681  0.69793179    -0.88300
O521        O  0.90222187  0.69449759  0.67337780    -0.88400
O522        O  0.89900679  0.74097349  0.68416584    -0.75400
Mg523      Mg  0.81600816  0.61660613  0.63413897     1.58000
O524        O  0.91644625  0.65416883  0.62549405    -0.82800
H525        H  0.72797568  0.58642590  0.66793239    -0.06500
O526        O  0.81107651  0.70723822  0.68256951    -0.88100
H527        H  0.83425254  0.76166034  0.67806670    -0.06300
H528        H  0.81414863  0.61190760  0.70939513    -0.06500
C529        C  0.81900055  0.73355595  0.67340119     0.87000
C530        C  0.75197682  0.60531991  0.66092007     0.87600
C531        C  0.81160699  0.63235157  0.70235414     0.87700
H532        H  0.93903486  0.74754381  0.66833516    -0.06500
O533        O  0.88602297  0.70771075  0.63691550    -0.75500
Mg534      Mg  0.84975415  0.71645825  0.70187169     1.58000
H535        H  0.85076116  0.72127492  0.62612760    -0.06500
C536        C  0.71076892  0.68426870  0.65925792     0.92700
O537        O  0.74926845  0.67978840  0.70895932    -0.82800
C538        C  0.76990587  0.69320618  0.72133178     0.92700
O539        O  0.77357876  0.60407510  0.61434775    -0.82700
Mg540      Mg  0.90956951  0.67557915  0.65008388     1.58200
O541        O  0.72281193  0.68267646  0.67319952    -0.81100
O542        O  0.93926250  0.65044640  0.68844223    -0.82800
C543        C  0.60526178  0.83467082  0.85817327    -0.10900
C544        C  0.59359759  0.79950104  0.86458322    -0.04700
C545        C  0.60511274  0.77588417  0.85818220    -0.10800
C546        C  0.62800929  0.78687361  0.84434666     0.10100
C547        C  0.63966788  0.82229733  0.83739018    -0.02600
C548        C  0.62862416  0.84651745  0.84444513     0.09900
C549        C  0.64097098  0.88160015  0.83753069    -0.12600
C550        C  0.66354532  0.89273138  0.82386752    -0.12600
C551        C  0.67446612  0.86911200  0.81653822     0.09900
C552        C  0.66270833  0.83365694  0.82346598    -0.02600
C553        C  0.63932200  0.76343470  0.83725357    -0.12800
C554        C  0.66136223  0.77429938  0.82342871    -0.12800
C555        C  0.67337264  0.80925258  0.81635080     0.10100
C556        C  0.69543618  0.82032378  0.80223642    -0.10800
C557        C  0.70729062  0.85561064  0.79570785    -0.04700
C558        C  0.69694587  0.88002341  0.80250310    -0.10900
H559        H  0.63303698  0.90065193  0.84260040     0.07400
H560        H  0.67242635  0.92015007  0.81910045     0.07400
H561        H  0.63076867  0.73626736  0.84225513     0.07500
H562        H  0.66909148  0.75509860  0.81835183     0.07500
H563        H  0.57678557  0.79110815  0.87544066     0.04000
H564        H  0.72346670  0.86353074  0.78468763     0.04000
C565        C  0.02144620  0.53405418  0.46806349    -0.10900
C566        C  0.02953318  0.50776662  0.46155113    -0.04700
C567        C  0.02010381  0.47452923  0.46949340    -0.10800
C568        C  0.00186613  0.46702117  0.48457497     0.10100
C569        C  0.99369358  0.49347856  0.49151534    -0.02600
C570        C  0.00348654  0.52712424  0.48324600     0.09900
C571        C  0.99575431  0.55311531  0.49053742    -0.12600
C572        C  0.97894602  0.54641847  0.50569481    -0.12600
C573        C  0.96895318  0.51334062  0.51407229     0.09900
C574        C  0.97613858  0.48646497  0.50686518    -0.02600
C575        C  0.99204689  0.43405439  0.49298075    -0.12800
C576        C  0.97448656  0.42701203  0.50792066    -0.12800
C577        C  0.96636619  0.45282466  0.51509419     0.10100
C578        C  0.94881037  0.44593957  0.53031949    -0.10800
C579        C  0.94186255  0.47262080  0.53721884    -0.04700
C580        C  0.95211976  0.50634660  0.52950678    -0.10900
H581        H  0.00298250  0.57905950  0.48461665     0.07400
H582        H  0.97374372  0.56738603  0.51081425     0.07400
H583        H  0.99790452  0.41337648  0.48805004     0.07500
H584        H  0.96739889  0.40110837  0.51384591     0.07500
H585        H  0.04351096  0.51330579  0.44999427     0.04000
H586        H  0.92919353  0.46749864  0.54906263     0.04000
C587        C  0.50749787  0.55625757  0.47536119    -0.10900
C588        C  0.47244871  0.53278697  0.46875648    -0.04700
C589        C  0.45014535  0.49623849  0.47398737    -0.10800
C590        C  0.46244658  0.48257118  0.48668407     0.10100
C591        C  0.49749671  0.50630083  0.49394957    -0.02600
C592        C  0.52016490  0.54331160  0.48829002     0.09900
C593        C  0.55463267  0.56626124  0.49573545    -0.12600
C594        C  0.56691861  0.55304215  0.50836823    -0.12600
C595        C  0.54519737  0.51636673  0.51399430     0.09900
C596        C  0.51017774  0.49272780  0.50668328    -0.02600
C597        C  0.44070245  0.44593038  0.49227481    -0.12800
C598        C  0.45296065  0.43276120  0.50488190    -0.12800
C599        C  0.48751121  0.45567906  0.51225282     0.10100
C600        C  0.50007077  0.44248609  0.52505683    -0.10800
C601        C  0.53510354  0.46557755  0.53168008    -0.04700
C602        C  0.55753952  0.50235788  0.52662741    -0.10900
H603        H  0.57231719  0.59472856  0.49186923     0.07400
H604        H  0.59383144  0.57170317  0.51358202     0.07400
H605        H  0.41387598  0.42722300  0.48698557     0.07500
H606        H  0.43527411  0.40427299  0.50872905     0.07500
H607        H  0.46328380  0.54235737  0.45854102     0.04000
H608        H  0.54391996  0.45557992  0.54186343     0.04000
C609        C  0.45650791  0.95576893  0.46899932    -0.10900
C610        C  0.48642474  0.95303691  0.46310484    -0.04700
C611        C  0.52001201  0.96805915  0.47147585    -0.10800
C612        C  0.52369738  0.98558988  0.48657240     0.10100
C613        C  0.49360037  0.98899069  0.49264951    -0.02600
C614        C  0.45996014  0.97426247  0.48376695     0.09900
C615        C  0.43082990  0.97862332  0.48980509    -0.12600
C616        C  0.43459541  0.99722002  0.50430417    -0.12600
C617        C  0.46748258  0.01178334  0.51334743     0.09900
C618        C  0.49725930  0.00752262  0.50753927    -0.02600
C619        C  0.55650874  0.99997327  0.49567791    -0.12800
C620        C  0.55970052  0.01721666  0.51056032    -0.12800
C621        C  0.53051525  0.02145142  0.51666381     0.10100
C622        C  0.53333536  0.03892232  0.53171080    -0.10800
C623        C  0.50404685  0.04351592  0.53703552    -0.04700
C624        C  0.47142049  0.03041381  0.52811348    -0.10900
H625        H  0.40487675  0.96774320  0.48331965     0.07400
H626        H  0.41142446  0.00000193  0.50841706     0.07400
H627        H  0.57985131  0.99768617  0.49139771     0.07500
H628        H  0.58538546  0.02755003  0.51720405     0.07500
H629        H  0.48383655  0.93975236  0.45150914     0.04000
H630        H  0.50636658  0.05688280  0.54858425     0.04000
O631        O  0.97762820  0.04322991  0.00264680    -0.88400
C632        C  0.94404556  0.96691102  0.96595081     0.87700
Mg633      Mg  0.03365308  0.08856528  0.00507036     1.58100
O634        O  0.95430428  0.93473863  0.00376563    -0.88100
O635        O  0.93625826  0.99602283  0.01662697    -0.75400
C636        C  0.13797689  0.01119366  0.99669868     0.92700
O637        O  0.00899557  0.05709856  0.96625925    -0.75200
O638        O  0.13960324  0.04238315  0.99501504    -0.82700
Mg639      Mg  0.95299115  0.03652896  0.97896683     1.58000
C640        C  0.01062074  0.87451103  0.00574873     0.92600
O641        O  0.89477674  0.01840092  0.98819259    -0.81000
H642        H  0.94026605  0.92363019  0.02696458    -0.06300
C643        C  0.04299638  0.97069317  0.97335058     0.87600
O644        O  0.04759490  0.05641547  0.02356927    -0.75500
O645        O  0.94112107  0.97982736  0.97892967    -0.88300
O646        O  0.98280807  0.87378193  0.99900256    -0.81100
C647        C  0.87949972  0.86263857  0.98227088     0.92800
C648        C  0.86467238  0.98964472  0.99238989     0.92600
Mg649      Mg  0.05049882  0.96421555  0.00937986     1.58000
O650        O  0.10752069  0.98094616  0.99873172    -0.81000
O651        O  0.99504257  0.94410909  0.02249488    -0.75200
O652        O  0.87645720  0.89148817  0.98435562    -0.81100
O653        O  0.96427967  0.09616150  0.97949989    -0.82800
O654        O  0.12673635  0.10905685  0.00512325    -0.81100
C655        C  0.96201260  0.93330830  0.01801851     0.87100
O656        O  0.06167575  0.02057034  0.00964629    -0.88300
O657        O  0.02539983  0.95723267  0.98591151    -0.88400
O658        O  0.06740577  0.00498147  0.97233495    -0.75400
Mg659      Mg  0.90989862  0.94602363  0.99933808     1.58000
O660        O  0.91067495  0.86403888  0.98263962    -0.82800
H661        H  0.96641507  0.04841928  0.02561449    -0.06500
O662        O  0.04953281  0.06646667  0.98505704    -0.88100
H663        H  0.06384025  0.07778512  0.96189460    -0.06300
H664        H  0.06431708  0.02286898  0.03369428    -0.06500
C665        C  0.04198816  0.06796620  0.97079460     0.87000
C666        C  0.96023590  0.03030361  0.01528558     0.87600
C667        C  0.05851544  0.03293422  0.02271956     0.87700
H668        H  0.03692292  0.95303111  0.96286759    -0.06500
O669        O  0.95495757  0.94338089  0.96526989    -0.75500
Mg670      Mg  0.09357496  0.05496872  0.98988016     1.58000
H671        H  0.93801156  0.97650859  0.95489657    -0.06500
C672        C  0.99253854  0.12628455  0.98411729     0.92700
O673        O  0.09259002  0.13648852  0.00680844    -0.82800
C674        C  0.12373492  0.13783993  0.00740752     0.92700
O675        O  0.86304683  0.95889090  0.99562159    -0.82700
Mg676      Mg  0.96950894  0.91178949  0.98386771     1.58200
O677        O  0.02081621  0.12706227  0.99034208    -0.81100
O678        O  0.03932080  0.90488411  0.00970997    -0.82800
O679        O  0.70512913  0.30849846  0.31761830    -0.88400
C680        C  0.63681993  0.26847709  0.35687925     0.87700
Mg681      Mg  0.75198372  0.36414167  0.31643324     1.58100
O682        O  0.60047782  0.29072003  0.32326104    -0.88100
O683        O  0.65459645  0.27116104  0.30428246    -0.75400
C684        C  0.69030765  0.47574257  0.34049367     0.92700
O685        O  0.72633650  0.32976125  0.35482817    -0.75200
O686        O  0.71976700  0.47370522  0.33985465    -0.82700
Mg687      Mg  0.70147628  0.27701941  0.33904441     1.58000
C688        C  0.54570130  0.35034286  0.33081715     0.92600
O689        O  0.67897080  0.22043511  0.32545819    -0.81000
H690        H  0.58585278  0.28485955  0.30003334    -0.06300
C691        C  0.64676962  0.37197348  0.35815543     0.87600
O692        O  0.71883328  0.38527359  0.30226131    -0.75500
O693        O  0.64637248  0.26787561  0.34282849    -0.88300
O694        O  0.54469690  0.31974875  0.33354754    -0.81100
C695        C  0.52923203  0.21123171  0.34401210     0.92800
C696        C  0.64690925  0.19197374  0.32313663     0.92600
Mg697      Mg  0.63442827  0.39054749  0.32461163     1.58000
O698        O  0.65814755  0.44714793  0.33840476    -0.81000
O699        O  0.60888742  0.33790767  0.30843144    -0.75200
O700        O  0.55667056  0.20791109  0.33942977    -0.81100
O701        O  0.76047066  0.28709856  0.33600421    -0.82800
O702        O  0.78108928  0.45914430  0.32358932    -0.81100
C703        C  0.59764847  0.30343018  0.31023142     0.87100
O704        O  0.68941083  0.39962257  0.32011509    -0.88300
O705        O  0.63028214  0.35791957  0.34540369    -0.88400
O706        O  0.68143323  0.39523863  0.35844083    -0.75400
Mg707      Mg  0.60816132  0.24308592  0.32315094     1.58000
O708        O  0.53201930  0.24298069  0.34580548    -0.82800
H709        H  0.70502969  0.30195937  0.29374025    -0.06500
O710        O  0.73587456  0.37634183  0.33931523    -0.88100
H711        H  0.75039470  0.38331788  0.36255638    -0.06300
H712        H  0.68677039  0.40761455  0.29653676    -0.06500
C713        C  0.73847621  0.36421308  0.35253480     0.87000
C714        C  0.68923610  0.29413964  0.30480795     0.87600
C715        C  0.69801182  0.39832388  0.30598548     0.87700
H716        H  0.63146847  0.36394380  0.36935032    -0.06500
O717        O  0.61524347  0.28078515  0.36042146    -0.75500
Mg718      Mg  0.72840893  0.42400399  0.33960749     1.58000
H719        H  0.64776736  0.25911195  0.36642121    -0.06500
C720        C  0.79007517  0.31677189  0.33212615     0.92700
O721        O  0.80248369  0.42195980  0.31587967    -0.82800
C722        C  0.80720551  0.45424292  0.31836383     0.92700
O723        O  0.61739161  0.19389455  0.32322912    -0.82700
Mg724      Mg  0.58253572  0.30178083  0.34573531     1.58200
O725        O  0.78985220  0.34539139  0.32699679    -0.81100
O726        O  0.57609032  0.38091694  0.32919365    -0.82800
O727        O  0.31665835  0.71056683  0.67917368    -0.88400
C728        C  0.26115264  0.63465514  0.64395235     0.87700
Mg729      Mg  0.37412697  0.75097323  0.67730204     1.58100
O730        O  0.28621911  0.60109469  0.67760613    -0.88100
O731        O  0.28151206  0.66654378  0.69591889    -0.75400
C732        C  0.46178897  0.66431967  0.65210251     0.92700
O733        O  0.32884499  0.72113562  0.64082857    -0.75200
O734        O  0.46249003  0.69495194  0.64989729    -0.82700
Mg735      Mg  0.28177149  0.70568533  0.65893578     1.58000
C736        C  0.33060675  0.53153807  0.66965450     0.92600
O737        O  0.22956551  0.69216536  0.67392446    -0.81000
H738        H  0.28393005  0.59047723  0.70117213    -0.06300
C739        C  0.35521007  0.62684684  0.63876069     0.87600
O740        O  0.39135211  0.71517578  0.69161064    -0.75500
O741        O  0.26541553  0.64810510  0.65763287    -0.88300
O742        O  0.30098714  0.53303963  0.66775653    -0.81100
C743        C  0.19774931  0.53452577  0.66141477     0.92800
C744        C  0.20089163  0.66346851  0.67947665     0.92600
Mg745      Mg  0.38047933  0.62133571  0.67233282     1.58000
O746        O  0.43276401  0.63533504  0.65723052    -0.81000
O747        O  0.33364403  0.60556596  0.69078675    -0.75200
O748        O  0.20218781  0.56499514  0.66698207    -0.81100
O749        O  0.30026937  0.76721607  0.66010412    -0.82800
O750        O  0.46008075  0.76385108  0.66459216    -0.81100
C751        C  0.30023509  0.59838062  0.69024574     0.87100
O752        O  0.39691429  0.67879312  0.67409128    -0.88300
O753        O  0.34448729  0.61554069  0.65255647    -0.88400
O754        O  0.38000979  0.66032117  0.63610187    -0.75400
Mg755      Mg  0.24467633  0.61697160  0.67974916     1.58000
O756        O  0.22511843  0.53042205  0.65761436    -0.82800
H757        H  0.31829564  0.71930984  0.70292342    -0.06500
O758        O  0.37588807  0.72600023  0.65448742    -0.88100
H759        H  0.37915185  0.73702394  0.63093787    -0.06300
H760        H  0.40977521  0.67982871  0.69733294    -0.06500
C761        C  0.36236077  0.72886676  0.64172462     0.87000
C762        C  0.30577678  0.69999034  0.69301272     0.87600
C763        C  0.40035072  0.69108583  0.68794416     0.87700
H764        H  0.34245127  0.60808350  0.62869264    -0.06500
O765        O  0.26894872  0.60945942  0.64066509    -0.75500
Mg766      Mg  0.41762015  0.71055143  0.65209819     1.58000
H767        H  0.25168820  0.64550153  0.63440720    -0.06500
C768        C  0.33255771  0.79541329  0.66201828     0.92700
O769        O  0.43486177  0.79460071  0.67597928    -0.82800
C770        C  0.46293020  0.79271318  0.67132994     0.92700
O771        O  0.20034153  0.63298676  0.68186035    -0.82700
Mg772      Mg  0.28663709  0.57416012  0.65535199     1.58200
O773        O  0.36040491  0.79238418  0.66600142    -0.81100
O774        O  0.36260476  0.56057670  0.67013318    -0.82800
C775        C  0.07182628  0.60918524  0.69997096    -0.17800
C776        C  0.03674593  0.60609326  0.69904963    -0.20000
C777        C  0.03040520  0.62853993  0.68841113     0.20600
C778        C  0.05994259  0.65459914  0.67873611    -0.02900
C779        C  0.09556660  0.65855864  0.68005484    -0.06000
C780        C  0.10145506  0.63534122  0.69052712     0.20900
C781        C  0.12513576  0.68539730  0.67067720     0.19100
C782        C  0.11889443  0.70772947  0.65998260    -0.17500
C783        C  0.08351616  0.70323282  0.65840689    -0.19700
C784        C  0.05393418  0.67674843  0.66769405     0.20600
C785        C  0.01857193  0.67245802  0.66624248    -0.32700
C786        C  0.98924566  0.64749297  0.67612326     0.01300
C787        C  0.99528828  0.62571899  0.68731047    -0.24000
C788        C  0.13656085  0.63809128  0.69100775    -0.28600
C789        C  0.16601596  0.66449342  0.68145840     0.06900
C790        C  0.16019509  0.68869207  0.67171131    -0.27300
H791        H  0.07579050  0.59111985  0.70809099     0.11700
H792        H  0.01447519  0.58587962  0.70654779     0.12800
H793        H  0.14129013  0.72834120  0.65265387     0.11900
H794        H  0.07931535  0.72058298  0.64994971     0.11100
H795        H  0.01421099  0.68986655  0.65785614     0.16500
H796        H  0.97276342  0.60665553  0.69503224     0.12400
H797        H  0.14072640  0.61917188  0.69849078     0.15300
H798        H  0.18242194  0.70866197  0.66410168     0.15000
C799        C  0.62493440  0.71744834  0.63180192    -0.17800
C800        C  0.58963159  0.71375472  0.63047751    -0.20000
C801        C  0.56080947  0.69032705  0.64095817     0.20600
C802        C  0.56771972  0.67025950  0.65280531    -0.02900
C803        C  0.60363847  0.67498623  0.65450122    -0.06000
C804        C  0.63239370  0.69847335  0.64387606     0.20900
C805        C  0.61075169  0.65628525  0.66690289     0.19100
C806        C  0.58184808  0.63216320  0.67713072    -0.17500
C807        C  0.54618165  0.62681068  0.67520904    -0.19700
C808        C  0.53891936  0.64594747  0.66319319     0.20600
C809        C  0.50363066  0.64206303  0.66178848    -0.32700
C810        C  0.49685608  0.66339003  0.65065084     0.01300
C811        C  0.52555668  0.68731531  0.64014253    -0.24000
C812        C  0.66789213  0.70232023  0.64551178    -0.28600
C813        C  0.67521150  0.68421288  0.65809178     0.06900
C814        C  0.64651775  0.66163732  0.66879859    -0.27300
H815        H  0.64656365  0.73557763  0.62351239     0.11700
H816        H  0.58489321  0.72928870  0.62125724     0.12800
H817        H  0.58682446  0.61738132  0.68662978     0.11900
H818        H  0.52437907  0.60813118  0.68331054     0.11100
H819        H  0.48199151  0.62412711  0.67013824     0.16500
H820        H  0.52064691  0.70403087  0.63159269     0.12400
H821        H  0.68975716  0.71936263  0.63708609     0.15300
H822        H  0.65165187  0.64680645  0.67824076     0.15000
C823        C  0.78760984  0.75227676  0.77520332    -0.17800
C824        C  0.77731880  0.77055604  0.78655131    -0.20000
C825        C  0.74443204  0.77173377  0.78459751     0.20600
C826        C  0.72101643  0.75304566  0.77136928    -0.02900
C827        C  0.73137054  0.73453560  0.75994617    -0.06000
C828        C  0.76519248  0.73477211  0.76168953     0.20900
C829        C  0.70856284  0.71710830  0.74644179     0.19100
C830        C  0.67518648  0.71735839  0.74468596    -0.17500
C831        C  0.66499189  0.73571927  0.75594890    -0.19700
C832        C  0.68794815  0.75409371  0.76918054     0.20600
C833        C  0.67908888  0.77464963  0.77990102    -0.32700
C834        C  0.70289502  0.79443588  0.79271407     0.01300
C835        C  0.73520177  0.79239272  0.79522765    -0.24000
C836        C  0.77674142  0.71902273  0.74953986    -0.28600
C837        C  0.75489523  0.70309320  0.73563985     0.06900
C838        C  0.72021983  0.70118115  0.73453390    -0.27300
H839        H  0.81358250  0.75260852  0.77680056     0.11700
H840        H  0.79555354  0.78454276  0.79665974     0.12800
H841        H  0.65734798  0.70406599  0.73438815     0.11900
H842        H  0.63948313  0.73619454  0.75412662     0.11100
H843        H  0.65433325  0.77651308  0.77795703     0.16500
H844        H  0.75365161  0.80790532  0.80507644     0.12400
H845        H  0.80346905  0.72068866  0.75058005     0.15300
H846        H  0.70304645  0.68908643  0.72394030     0.15000
C847        C  0.69449520  0.52933083  0.56566154    -0.17800
C848        C  0.66944637  0.51601274  0.55277607    -0.20000
C849        C  0.64431938  0.52875293  0.55045054     0.20600
C850        C  0.64466734  0.55547733  0.56109771    -0.02900
C851        C  0.66972499  0.56866275  0.57417563    -0.06000
C852        C  0.69473144  0.55548592  0.57648458     0.20900
C853        C  0.66939740  0.59465557  0.58504359     0.19100
C854        C  0.64443797  0.60758233  0.58267914    -0.17500
C855        C  0.61955789  0.59445456  0.56975025    -0.19700
C856        C  0.61924089  0.56820838  0.55896703     0.20600
C857        C  0.59283679  0.55318434  0.54655952    -0.32700
C858        C  0.59136700  0.52541940  0.53636218     0.01300
C859        C  0.61776161  0.51402656  0.53811254    -0.24000
C860        C  0.71951635  0.56871533  0.58955052    -0.28600
C861        C  0.71942289  0.59476365  0.60041162     0.06900
C862        C  0.69403848  0.60734804  0.59808814    -0.27300
H863        H  0.71349834  0.51893629  0.56723610     0.11700
H864        H  0.66944975  0.49542134  0.54472456     0.12800
H865        H  0.64395556  0.62764345  0.59091283     0.11900
H866        H  0.60020461  0.60445995  0.56831351     0.11100
H867        H  0.57188351  0.56124374  0.54547760     0.16500
H868        H  0.61611268  0.49207304  0.53042656     0.12400
H869        H  0.73895383  0.55886908  0.59120707     0.15300
H870        H  0.69378613  0.62758195  0.60629828     0.15000
C871        C  0.99502637  0.60333008  0.57154141    -0.17800
C872        C  0.98697537  0.62215510  0.58348409    -0.20000
C873        C  0.95147873  0.61808399  0.58453995     0.20600
C874        C  0.92413328  0.59554211  0.57314058    -0.02900
C875        C  0.93218315  0.57631805  0.56113496    -0.06000
C876        C  0.96771193  0.57994976  0.56045617     0.20900
C877        C  0.90424632  0.55232013  0.55024070     0.19100
C878        C  0.86894038  0.54873130  0.55111990    -0.17500
C879        C  0.86109166  0.56801411  0.56290291    -0.19700
C880        C  0.88831727  0.59104822  0.57410292     0.20600
C881        C  0.87980461  0.60828086  0.58665834    -0.32700
C882        C  0.90626109  0.62926602  0.59862321     0.01300
C883        C  0.94241332  0.63482371  0.59718412    -0.24000
C884        C  0.97478469  0.55893400  0.54916996    -0.28600
C885        C  0.94669693  0.53401366  0.53870591     0.06900
C886        C  0.91166833  0.53122400  0.53911996    -0.27300
H887        H  0.02244480  0.60643859  0.57119708     0.11700
H888        H  0.00834748  0.63935906  0.59209797     0.12800
H889        H  0.84717736  0.53049826  0.54286303     0.11900
H890        H  0.83341481  0.56422799  0.56348549     0.11100
H891        H  0.85180502  0.60356528  0.58756962     0.16500
H892        H  0.96303918  0.65076863  0.60628771     0.12400
H893        H  0.00154457  0.56046224  0.54904615     0.15300
H894        H  0.88983565  0.51147504  0.53125076     0.15000
C895        C  0.55828472  0.90463253  0.69996517    -0.17800
C896        C  0.59224241  0.93806510  0.69979252    -0.20000
C897        C  0.61418003  0.94936737  0.68581790     0.20600
C898        C  0.60230358  0.92637376  0.67201173    -0.02900
C899        C  0.56848316  0.89234829  0.67229347    -0.06000
C900        C  0.54600228  0.88173486  0.68624124     0.20900
C901        C  0.55678900  0.86936537  0.65848231     0.19100
C902        C  0.57874212  0.88051811  0.64453868    -0.17500
C903        C  0.61187803  0.91459024  0.64415753    -0.19700
C904        C  0.62376299  0.93776497  0.65778309     0.20600
C905        C  0.65624501  0.97253935  0.65728089    -0.32700
C906        C  0.66786108  0.99590561  0.67087194     0.01300
C907        C  0.64719375  0.98376309  0.68523023    -0.24000
C908        C  0.51139449  0.84878465  0.68606726    -0.28600
C909        C  0.49988815  0.82593478  0.67232188     0.06900
C910        C  0.52292093  0.83599530  0.65871798    -0.27300
H911        H  0.54150489  0.89682484  0.71078844     0.11700
H912        H  0.60101289  0.95543566  0.71049326     0.12800
H913        H  0.56998613  0.86314011  0.63384026     0.11900
H914        H  0.62808360  0.92293968  0.63316667     0.11100
H915        H  0.67217344  0.98170154  0.64621938     0.16500
H916        H  0.65586620  0.00180293  0.69573137     0.12400
H917        H  0.49346593  0.84088148  0.69653980     0.15300
H918        H  0.51366392  0.81851176  0.64803603     0.15000
C919        C  0.07200607  0.46979347  0.68410020    -0.17800
C920        C  0.03720249  0.43778872  0.68573180    -0.20000
C921        C  0.02711386  0.40681163  0.67577113     0.20600
C922        C  0.05220842  0.40838123  0.66386462    -0.02900
C923        C  0.08764630  0.44031187  0.66248182    -0.06000
C924        C  0.09748528  0.47107415  0.67266513     0.20900
C925        C  0.11348224  0.44111370  0.65117511     0.19100
C926        C  0.10306297  0.41047095  0.64095094    -0.17500
C927        C  0.06759809  0.37914278  0.64205455    -0.19700
C928        C  0.04221157  0.37774733  0.65356877     0.20600
C929        C  0.00729349  0.34590706  0.65520827    -0.32700
C930        C  0.98273394  0.34363493  0.66739074     0.01300
C931        C  0.99270032  0.37408319  0.67766561    -0.24000
C932        C  0.13300478  0.50222980  0.67155856    -0.28600
C933        C  0.15944082  0.50273598  0.66079977     0.06900
C934        C  0.14946177  0.47219068  0.65054668    -0.27300
H935        H  0.07927696  0.49330840  0.69200052     0.11700
H936        H  0.01826987  0.43718386  0.69484938     0.12800
H937        H  0.12241376  0.41063749  0.63216892     0.11900
H938        H  0.06023513  0.35572549  0.63408182     0.11100
H939        H  0.99976493  0.32214212  0.64740711     0.16500
H940        H  0.97371292  0.37226658  0.68703872     0.12400
H941        H  0.14058382  0.52555055  0.67963736     0.15300
H942        H  0.16968850  0.47253396  0.64221067     0.15000
C943        C  0.80357055  0.03330396  0.77140154    -0.17800
C944        C  0.79320263  0.00259515  0.78145159    -0.20000
C945        C  0.75576365  0.97484848  0.78294534     0.20600
C946        C  0.72842877  0.97856064  0.77447426    -0.02900
C947        C  0.73894571  0.00947737  0.76423838    -0.06000
C948        C  0.77673571  0.03678113  0.76257221     0.20900
C949        C  0.71177176  0.01231784  0.75523793     0.19100
C950        C  0.67426371  0.98489217  0.75692946    -0.17500
C951        C  0.66382546  0.95449055  0.76715584    -0.19700
C952        C  0.69068962  0.95081570  0.77583288     0.20600
C953        C  0.68058712  0.91945130  0.78550462    -0.32700
C954        C  0.70770862  0.91523014  0.79372874     0.01300
C955        C  0.74524330  0.94307164  0.79243937    -0.24000
C956        C  0.78720305  0.06603897  0.75153514    -0.28600
C957        C  0.76049284  0.06793424  0.74179105     0.06900
C958        C  0.72267015  0.04150220  0.74414695    -0.35100
H959        H  0.83272114  0.05396189  0.77027081     0.11700
H960        H  0.81455817  0.00029353  0.78789022     0.12800
H961        H  0.65301240  0.98660073  0.75011442     0.11900
H962        H  0.63474101  0.93347476  0.76805880     0.11100
H963        H  0.65172315  0.89771218  0.78630754     0.16500
H964        H  0.76619654  0.93963881  0.79865192     0.12400
H965        H  0.81641689  0.08589308  0.74979156     0.15300
H966        H  0.70176150  0.04246780  0.73674353     0.15000
C967        C  0.60573895  0.03562539  0.59593978    -0.17800
C968        C  0.58042727  0.02134630  0.58317450    -0.20000
C969        C  0.58585791  0.04265206  0.56929345     0.20600
C970        C  0.61714053  0.07873455  0.56823779    -0.02900
C971        C  0.64262210  0.09323473  0.58118060    -0.06000
C972        C  0.63689245  0.07151742  0.59507020     0.20900
C973        C  0.67376260  0.12940573  0.58022051     0.19100
C974        C  0.67907951  0.15075905  0.56634359    -0.17500
C975        C  0.65373565  0.13648413  0.55355283    -0.19700
C976        C  0.62264526  0.10053105  0.55437109     0.20600
C977        C  0.59639391  0.08637782  0.54181427    -0.32700
C978        C  0.56484063  0.05078499  0.54301360     0.01300
C979        C  0.55999335  0.02893308  0.55666191    -0.24000
C980        C  0.66261241  0.08580839  0.60776913    -0.28600
C981        C  0.69422390  0.12159472  0.60683056     0.06900
C982        C  0.69926141  0.14338311  0.59304751    -0.27300
H983        H  0.60092882  0.01857283  0.60650954     0.11700
H984        H  0.55648247  0.99365065  0.58419015     0.12800
H985        H  0.70286027  0.17857311  0.56538455     0.11900
H986        H  0.65837533  0.15365170  0.54304102     0.11100
H987        H  0.59959008  0.10350980  0.53144186     0.16500
H988        H  0.53517277  0.00181971  0.55769597     0.12400
H989        H  0.65833188  0.06866584  0.61826320     0.15300
H990        H  0.72352955  0.17089526  0.59209523     0.15000
C991        C  0.85494927  0.32342973  0.55189246    -0.17800
C992        C  0.84454216  0.29489002  0.56317459    -0.20000
C993        C  0.87086301  0.29504322  0.57377339     0.20600
C994        C  0.90831299  0.32357937  0.57259244    -0.02900
C995        C  0.91885133  0.35237731  0.56118760    -0.06000
C996        C  0.89189122  0.35261636  0.55097362     0.20900
C997        C  0.95608807  0.38164995  0.56043443     0.19100
C998        C  0.98256464  0.38134061  0.57075937    -0.17500
C999        C  0.97210997  0.35289386  0.58206501    -0.19700
C1000       C  0.93498179  0.32422958  0.58324657     0.20600
C1001       C  0.92380799  0.29734987  0.59542270    -0.32700
C1002       C  0.88613846  0.27006466  0.59734453     0.01300
C1003       C  0.86006952  0.26831600  0.58604478    -0.24000
C1004       C  0.90215186  0.38263306  0.54042010    -0.28600
C1005       C  0.93899960  0.41219414  0.53992683     0.06900
C1006       C  0.96592998  0.41129858  0.54975098    -0.27300
H1007       H  0.83392825  0.32306999  0.54410318     0.11700
H1008       H  0.81568385  0.27316506  0.56387533     0.12800
H1009       H  0.01126052  0.40353339  0.57031638     0.11900
H1010       H  0.99294678  0.35378601  0.59014429     0.11100
H1011       H  0.94424633  0.29906667  0.60397903     0.16500
H1012       H  0.83098797  0.24754121  0.58735600     0.12400
H1013       H  0.88140277  0.38360172  0.53289923     0.15300
H1014       H  0.99425296  0.43435769  0.54942955     0.15000
C1015       C  0.02516709  0.72785812  0.75204968    -0.17800
C1016       C  0.05114249  0.74220988  0.76457409    -0.20000
C1017       C  0.04935196  0.76581601  0.77623051     0.20600
C1018       C  0.02038814  0.77411700  0.77554208    -0.02900
C1019       C  0.99419029  0.75966008  0.76287529    -0.06000
C1020       C  0.99698517  0.73691637  0.75095329     0.20900
C1021       C  0.96589977  0.76885574  0.76189153     0.19100
C1022       C  0.96348260  0.79158338  0.77382774    -0.17500
C1023       C  0.98960416  0.80616324  0.78630250    -0.19700
C1024       C  0.01848115  0.79808956  0.78712180     0.20600
C1025       C  0.04646361  0.81494306  0.79882591    -0.32700
C1026       C  0.07613922  0.80799271  0.79910075     0.01300
C1027       C  0.07696906  0.78269597  0.78808323    -0.24000
C1028       C  0.97202314  0.72418939  0.73797556    -0.28600
C1029       C  0.94413828  0.73384233  0.73665787     0.06900
C1030       C  0.94099828  0.75579247  0.74884107    -0.27300
H1031       H  0.02754756  0.71022161  0.74304068     0.11700
H1032       H  0.07311713  0.73548222  0.76494364     0.12800
H1033       H  0.94181880  0.79873612  0.77332898     0.11900
H1034       H  0.98765312  0.82438408  0.79513230     0.11100
H1035       H  0.04631251  0.83497408  0.80719628     0.16500
H1036       H  0.10031172  0.77796861  0.78816869     0.12400
H1037       H  0.97453839  0.70688071  0.72883208     0.15300
H1038       H  0.91941992  0.76304556  0.74810277     0.15000
C1039       C  0.04164004  0.31062232  0.74219607    -0.17800
C1040       C  0.06963481  0.32434391  0.75389248    -0.20000
C1041       C  0.06795868  0.30181722  0.76679214     0.20600
C1042       C  0.03755832  0.26517273  0.76798627    -0.02900
C1043       C  0.00943634  0.25123946  0.75610866    -0.06000
C1044       C  0.01156225  0.27406790  0.74314864     0.20900
C1045       C  0.97941457  0.21438534  0.75713249     0.19100
C1046       C  0.97771559  0.19188978  0.77005237    -0.17500
C1047       C  0.00560800  0.20562948  0.78179016    -0.19700
C1048       C  0.03567528  0.24214219  0.78084163     0.20600
C1049       C  0.06452179  0.25558771  0.79219438    -0.32700
C1050       C  0.09529322  0.29157583  0.79077551     0.01300
C1051       C  0.09671496  0.31476512  0.77820034    -0.24000
C1052       C  0.98358875  0.26000382  0.73137469    -0.28600
C1053       C  0.95330129  0.22333166  0.73232782     0.06900
C1054       C  0.95159156  0.20068536  0.74525892    -0.27300
H1055       H  0.04365434  0.32854189  0.73232990     0.11700
H1056       H  0.09276775  0.35249403  0.75277306     0.12800
H1057       H  0.95486804  0.16355310  0.77104194     0.11900
H1058       H  0.00381546  0.18756462  0.79155147     0.11100
H1059       H  0.06405030  0.23749511  0.80168504     0.16500
H1060       H  0.12097968  0.34219914  0.77693114     0.12400
H1061       H  0.98528853  0.27787465  0.72153808     0.15300
H1062       H  0.92841450  0.17249671  0.74619724     0.15000
C1063       C  0.37506433  0.45017223  0.64930145    -0.17800
C1064       C  0.37005664  0.41469443  0.64677295    -0.20000
C1065       C  0.34052477  0.38359850  0.65415364     0.20600
C1066       C  0.31579234  0.38819230  0.66423232    -0.02900
C1067       C  0.32029505  0.42392750  0.66645637    -0.06000
C1068       C  0.35022858  0.45500643  0.65901727     0.20900
C1069       C  0.29468178  0.42850419  0.67594556     0.19100
C1070       C  0.26560628  0.39741189  0.68359845    -0.17500
C1071       C  0.26188417  0.36211576  0.68183266    -0.19700
C1072       C  0.28667312  0.35714326  0.67209157     0.20600
C1073       C  0.28322547  0.32186695  0.67017770    -0.32700
C1074       C  0.30763123  0.31723800  0.65998302     0.01300
C1075       C  0.33574457  0.34809012  0.65182934    -0.24000
C1076       C  0.35435171  0.49030282  0.66107926    -0.28600
C1077       C  0.32811414  0.49489311  0.66987893     0.06900
C1078       C  0.29833088  0.46396002  0.67734333    -0.27300
H1079       H  0.39810321  0.47379246  0.64348242     0.11700
H1080       H  0.38941003  0.41159427  0.63910069     0.12800
H1081       H  0.24578651  0.40040350  0.69098296     0.11900
H1082       H  0.23938390  0.33863153  0.68796275     0.11100
H1083       H  0.26174239  0.29810231  0.67659680     0.16500
H1084       H  0.35511984  0.34471285  0.64426565     0.12400
H1085       H  0.37701037  0.51404017  0.65511207     0.15300
H1086       H  0.27805703  0.46751519  0.68412657     0.15000
C1087       C  0.29647395  0.88306334  0.64028487    -0.17800
C1088       C  0.29855877  0.91765721  0.64084721    -0.20000
C1089       C  0.32246622  0.94502554  0.65179722     0.20600
C1090       C  0.34542913  0.93815337  0.66193244    -0.02900
C1091       C  0.34401610  0.90358704  0.66106244    -0.06000
C1092       C  0.31874767  0.87559770  0.65046155     0.20900
C1093       C  0.36703762  0.89664267  0.67113688     0.19100
C1094       C  0.39148322  0.92435851  0.68186145    -0.17500
C1095       C  0.39220758  0.95833687  0.68300846    -0.19700
C1096       C  0.36892923  0.96534828  0.67326129     0.20600
C1097       C  0.36794431  0.99855458  0.67487980    -0.32700
C1098       C  0.34474311  0.00512010  0.66487187     0.01300
C1099       C  0.32289580  0.97870856  0.65312197    -0.24000
C1100       C  0.31550703  0.84035163  0.65052977    -0.28600
C1101       C  0.33793912  0.83314019  0.66073198     0.06900
C1102       C  0.36431184  0.86167192  0.67068339    -0.27300
H1103       H  0.27714968  0.86200908  0.63201542     0.11700
H1104       H  0.28081415  0.92269717  0.63298506     0.12800
H1105       H  0.40939115  0.91940016  0.68965117     0.11900
H1106       H  0.41063417  0.97893518  0.69165537     0.11100
H1107       H  0.38497273  0.01909802  0.68385488     0.16500
H1108       H  0.30474451  0.98368038  0.64547067     0.12400
H1109       H  0.29535904  0.81845315  0.64278371     0.15300
H1110       H  0.38148849  0.85607772  0.67867685     0.15000
C1111       C  0.25895726  0.96164987  0.74796968    -0.17800
C1112       C  0.24760828  0.93859473  0.76151727    -0.20000
C1113       C  0.22912373  0.94478429  0.77424096     0.20600
C1114       C  0.22272626  0.97504695  0.77347564    -0.02900
C1115       C  0.23419624  0.99835273  0.75976373    -0.06000
C1116       C  0.25206371  0.99136069  0.74689159     0.20900
C1117       C  0.22707755  0.02809847  0.75879193     0.19100
C1118       C  0.20909102  0.03462853  0.77165593    -0.17500
C1119       C  0.19729437  0.01126429  0.78514272    -0.19700
C1120       C  0.20352952  0.98108992  0.78608945     0.20600
C1121       C  0.18908874  0.95562106  0.79891784    -0.32700
C1122       C  0.19389009  0.92444690  0.79929477     0.01300
C1123       C  0.21503919  0.91997811  0.78724001    -0.24000
C1124       C  0.26262373  0.01404543  0.73313755    -0.28600
C1125       C  0.25569295  0.04385784  0.73199330     0.06900
C1126       C  0.23785890  0.05062322  0.74495543    -0.27300
H1127       H  0.27276755  0.95595538  0.73823298     0.11700
H1128       H  0.25265894  0.91543811  0.76189989     0.12800
H1129       H  0.20356497  0.05746431  0.77116721     0.11900
H1130       H  0.18268856  0.01640845  0.79470558     0.11100
H1131       H  0.17194185  0.95851605  0.80798675     0.16500
H1132       H  0.21782252  0.89538191  0.78731488     0.12400
H1133       H  0.27654423  0.00859597  0.72336266     0.15300
H1134       H  0.23261094  0.07364154  0.74436425     0.15000
C1135       C  0.28284962  0.33116101  0.76059476    -0.17800
C1136       C  0.29877432  0.31942581  0.74879394    -0.20000
C1137       C  0.28964074  0.28202427  0.74790979     0.20600
C1138       C  0.26532888  0.25645462  0.75941223    -0.02900
C1139       C  0.24917802  0.26828364  0.77131849    -0.06000
C1140       C  0.25749348  0.30569385  0.77170150     0.20900
C1141       C  0.22330688  0.24229916  0.78230045     0.19100
C1142       C  0.21505247  0.20513389  0.78170846    -0.17500
C1143       C  0.23119287  0.19346438  0.76995479    -0.19700
C1144       C  0.25577511  0.21873085  0.75855517     0.20600
C1145       C  0.26944816  0.20657953  0.74584951    -0.32700
C1146       C  0.29198455  0.23151753  0.73378520     0.01300
C1147       C  0.30293645  0.26945040  0.73525193    -0.24000
C1148       C  0.23886647  0.31650673  0.78261504    -0.28600
C1149       C  0.21183571  0.29034047  0.79299647     0.06900
C1150       C  0.20478356  0.25354696  0.79309934    -0.27300
H1151       H  0.28959858  0.35997679  0.76075368     0.11700
H1152       H  0.31748896  0.33942739  0.74008257     0.12800
H1153       H  0.19537257  0.18486640  0.79007850     0.11900
H1154       H  0.22362930  0.16442174  0.76950309     0.11100
H1155       H  0.26073712  0.17728361  0.74486780     0.16500
H1156       H  0.32037934  0.28897131  0.72609491     0.12400
H1157       H  0.24378702  0.34473444  0.78244137     0.15300
H1158       H  0.18350495  0.23335621  0.80099883     0.15000
C1159       C  0.35388351  0.00089657  0.57948508    -0.17800
C1160       C  0.37235394  0.99105754  0.56814958    -0.20000
C1161       C  0.39509355  0.01665578  0.55644148     0.20600
C1162       C  0.39784688  0.05191743  0.55563701    -0.02900
C1163       C  0.37921667  0.06186181  0.56710646    -0.06000
C1164       C  0.35789283  0.03651790  0.57931049     0.20900
C1165       C  0.38375466  0.09789033  0.56694199     0.19100
C1166       C  0.40528190  0.12295437  0.55480221    -0.17500
C1167       C  0.42381076  0.11314326  0.54344932    -0.19700
C1168       C  0.42106570  0.07807769  0.54403132     0.20600
C1169       C  0.44288386  0.06954627  0.53393403    -0.32700
C1170       C  0.44172724  0.03531537  0.53538095     0.01300
C1171       C  0.41692334  0.00851717  0.54621408    -0.24000
C1172       C  0.34290688  0.04795317  0.59171286    -0.28600
C1173       C  0.34963724  0.08472009  0.59233412     0.06900
C1174       C  0.36869684  0.10899493  0.57948246    -0.27300
H1175       H  0.33748763  0.98106986  0.58874104     0.11700
H1176       H  0.36983816  0.96384472  0.56888143     0.12800
H1177       H  0.40888910  0.15065403  0.55443771     0.11900
H1178       H  0.44131699  0.13345737  0.53456241     0.11100
H1179       H  0.46248223  0.09030344  0.52568287     0.16500
H1180       H  0.41658172  0.98235845  0.54741294     0.12400
H1181       H  0.32815561  0.02890058  0.60146684     0.15300
H1182       H  0.37392961  0.13732512  0.57974871     0.15000
C1183       C  0.40426302  0.38020822  0.56600804    -0.17800
C1184       C  0.38915347  0.35456420  0.57856319    -0.20000
C1185       C  0.39966785  0.32766295  0.58076515     0.20600
C1186       C  0.42502382  0.32598532  0.56998950    -0.02900
C1187       C  0.44050336  0.35207250  0.55736394    -0.06000
C1188       C  0.43026953  0.37949763  0.55549586     0.20900
C1189       C  0.46721993  0.35161462  0.54701896     0.19100
C1190       C  0.47698133  0.32404871  0.54897814    -0.17500
C1191       C  0.46112781  0.29776653  0.56133474    -0.19700
C1192       C  0.43557701  0.29886729  0.57206323     0.20600
C1193       C  0.42079125  0.27373084  0.58495439    -0.32700
C1194       C  0.39597725  0.27570357  0.59594878     0.01300
C1195       C  0.38551232  0.30271863  0.59367208    -0.24000
C1196       C  0.44754699  0.40687329  0.54367642    -0.28600
C1197       C  0.47559604  0.40784495  0.53397310     0.06900
C1198       C  0.48487549  0.37976960  0.53543709    -0.27300
H1199       H  0.39617920  0.40112436  0.56472605     0.11700
H1200       H  0.36956555  0.35607448  0.58668692     0.12800
H1201       H  0.49731493  0.32317552  0.54111669     0.11900
H1202       H  0.46942127  0.27702698  0.56269702     0.11100
H1203       H  0.42889080  0.25287972  0.58650056     0.16500
H1204       H  0.36607411  0.30423183  0.60189921     0.12400
H1205       H  0.44109418  0.42905861  0.54275615     0.15300
H1206       H  0.50701791  0.38098782  0.52810784     0.15000
C1207       C  0.99490334  0.25986836  0.01766282    -0.17800
C1208       C  0.99947988  0.22891822  0.01600768    -0.20000
C1209       C  0.99379337  0.21101068  0.00104120     0.20600
C1210       C  0.98316264  0.22415361  0.98760919    -0.02900
C1211       C  0.97913631  0.25580818  0.98922644    -0.06000
C1212       C  0.98498692  0.27367262  0.00433469     0.20900
C1213       C  0.96979887  0.26986245  0.97569809     0.19100
C1214       C  0.96380675  0.25167004  0.96076650    -0.17500
C1215       C  0.96691199  0.21973318  0.95924968    -0.19700
C1216       C  0.97664997  0.20573774  0.97257693     0.20600
C1217       C  0.97982784  0.17362854  0.97121243    -0.32700
C1218       C  0.99096927  0.16092632  0.98454815     0.01300
C1219       C  0.99826320  0.17998062  0.99932608    -0.24000
C1220       C  0.98195461  0.30568775  0.00577066    -0.28600
C1221       C  0.97418391  0.32085203  0.99221331     0.06900
C1222       C  0.96754268  0.30236065  0.97725680    -0.27300
H1223       H  0.99958187  0.27329958  0.02933043     0.11700
H1224       H  0.00745320  0.21896084  0.02644661     0.12800
H1225       H  0.95669707  0.26215049  0.95024231     0.11900
H1226       H  0.96194161  0.20612427  0.94761575     0.11100
H1227       H  0.97398773  0.15876783  0.95985055     0.16500
H1228       H  0.00618702  0.16972541  0.00970025     0.12400
H1229       H  0.98756163  0.31985854  0.01730304     0.15300
H1230       H  0.96164182  0.31383314  0.96671474     0.15000
C1231       C  0.05480455  0.76190481  0.03209092    -0.17800
C1232       C  0.05230714  0.79436372  0.03213166    -0.20000
C1233       C  0.03335541  0.80098158  0.01976837     0.20600
C1234       C  0.01711577  0.77472447  0.00716531    -0.02900
C1235       C  0.02070837  0.74268088  0.00684378    -0.06000
C1236       C  0.03908581  0.73582749  0.01950553     0.20900
C1237       C  0.00549555  0.71729655  0.99391006     0.19100
C1238       C  0.98644981  0.72368839  0.98156709    -0.17500
C1239       C  0.98210283  0.75486158  0.98209343    -0.19700
C1240       C  0.99732102  0.78048147  0.99481747     0.20600
C1241       C  0.99362210  0.81210890  0.99519308    -0.32700
C1242       C  0.01072607  0.83911591  0.00734174     0.01300
C1243       C  0.03066606  0.83347863  0.01962187    -0.24000
C1244       C  0.04068317  0.70271015  0.01945817    -0.28600
C1245       C  0.02532187  0.67728546  0.00657500     0.06900
C1246       C  0.00865465  0.68537681  0.99370276    -0.27300
H1247       H  0.06912069  0.75724678  0.04189121     0.11700
H1248       H  0.06493993  0.81415016  0.04191520     0.12800
H1249       H  0.97451122  0.70431635  0.97159315     0.11900
H1250       H  0.96703365  0.75906852  0.97248081     0.11100
H1251       H  0.97885655  0.81661588  0.98552079     0.16500
H1252       H  0.04409077  0.85435001  0.02896422     0.12400
H1253       H  0.05345989  0.69654854  0.02943629     0.15300
H1254       H  0.99618924  0.66566452  0.98386015     0.15000
C1255       C  0.12109895  0.66856431  0.88656924    -0.17800
C1256       C  0.10369013  0.63904396  0.89743931    -0.20000
C1257       C  0.07651506  0.63699945  0.90808346     0.20600
C1258       C  0.06575375  0.66421216  0.90734390    -0.02900
C1259       C  0.08314512  0.69389711  0.89628121    -0.06000
C1260       C  0.11150397  0.69645736  0.88608991     0.20900
C1261       C  0.07334747  0.72188124  0.89593816     0.19100
C1262       C  0.04547198  0.71927563  0.90629106    -0.17500
C1263       C  0.02843294  0.69001024  0.91731855    -0.19700
C1264       C  0.03885924  0.66273621  0.91814492     0.20600
C1265       C  0.02424820  0.63515631  0.93009371    -0.32700
C1266       C  0.03627666  0.60905074  0.93145977     0.01300
C1267       C  0.06136954  0.60935632  0.91998039    -0.24000
C1268       C  0.13082899  0.72764657  0.87611687    -0.28600
C1269       C  0.12204208  0.75614976  0.87615721     0.06900
C1270       C  0.09273891  0.75275577  0.88577657    -0.27300
H1271       H  0.14268380  0.67002456  0.87878234     0.11700
H1272       H  0.11223200  0.61834859  0.89782405     0.12800
H1273       H  0.03752656  0.74043023  0.90615868     0.11900
H1274       H  0.00773231  0.68922649  0.92548050     0.11100
H1275       H  0.00484702  0.63516499  0.93880879     0.16500
H1276       H  0.07097574  0.58953727  0.92090382     0.12400
H1277       H  0.15366647  0.73055083  0.86876530     0.15300
H1278       H  0.08632540  0.77502912  0.88589181     0.15000
C1279       C  0.06930349  0.34544434  0.90585785    -0.17800
C1280       C  0.05676406  0.35948349  0.91818275    -0.20000
C1281       C  0.06863086  0.39762902  0.91900259     0.20600
C1282       C  0.09277809  0.42177713  0.90709875    -0.02900
C1283       C  0.10542299  0.40756154  0.89460427    -0.06000
C1284       C  0.09392761  0.36926191  0.89410530     0.20900
C1285       C  0.13057225  0.43185478  0.88297241     0.19100
C1286       C  0.14197649  0.46991336  0.88368222    -0.17500
C1287       C  0.12916257  0.48391146  0.89596377    -0.19700
C1288       C  0.10486024  0.46018650  0.90785487     0.20600
C1289       C  0.09266948  0.47417775  0.92052981    -0.32700
C1290       C  0.06872313  0.45026926  0.93256329     0.01300
C1291       C  0.05691562  0.41196715  0.93159912    -0.24000
C1292       C  0.10866273  0.35578666  0.88236993    -0.28600
C1293       C  0.13499884  0.38011119  0.87122049     0.06900
C1294       C  0.14521370  0.41795344  0.87134995    -0.27300
H1295       H  0.06021274  0.31600516  0.90568012     0.11700
H1296       H  0.03809167  0.34052393  0.92720448     0.12800
H1297       H  0.16126876  0.48898973  0.87486063     0.11900
H1298       H  0.13869472  0.51344139  0.89628411     0.11100
H1299       H  0.10184986  0.50362957  0.92101960     0.16500
H1300       H  0.03827969  0.39302517  0.94064065     0.12400
H1301       H  0.10158001  0.32685387  0.88255464     0.15300
H1302       H  0.16627577  0.43689244  0.86302968     0.15000
C1303       C  0.24879033  0.22015288  0.03075788    -0.17800
C1304       C  0.28126567  0.25499961  0.03162584    -0.20000
C1305       C  0.28547872  0.28466326  0.02203148     0.20600
C1306       C  0.25647806  0.27927511  0.01160102    -0.02900
C1307       C  0.22334370  0.24437415  0.01102025    -0.06000
C1308       C  0.21964302  0.21448034  0.02048723     0.20900
C1309       C  0.19413664  0.23928957  0.00080026     0.19100
C1310       C  0.19847668  0.26875234  0.99105648    -0.17500
C1311       C  0.23162527  0.30297099  0.99132460    -0.19700
C1312       C  0.26080286  0.30854097  0.00153612     0.20600
C1313       C  0.29448623  0.34255552  0.00159702    -0.32700
C1314       C  0.32357370  0.34811278  0.01191685     0.01300
C1315       C  0.31853583  0.31927676  0.02235101    -0.24000
C1316       C  0.18702556  0.17946815  0.01939152    -0.28600
C1317       C  0.15761710  0.17456585  0.00943996     0.06900
C1318       C  0.16127947  0.20469685  0.00032902    -0.27300
H1319       H  0.24646689  0.19762892  0.03813857     0.11700
H1320       H  0.30333176  0.25860233  0.03964966     0.12800
H1321       H  0.17635163  0.26519679  0.98308123     0.11900
H1322       H  0.23444983  0.32509651  0.98352401     0.11100
H1323       H  0.29827924  0.36459052  0.99348669     0.16500
H1324       H  0.34110873  0.32314435  0.03012518     0.12400
H1325       H  0.18433016  0.15620540  0.02634664     0.15300
H1326       H  0.13890509  0.20076501  0.99240303     0.15000
C1327       C  0.75117523  0.77997531  0.96272977    -0.17800
C1328       C  0.71760237  0.74623135  0.96367672    -0.20000
C1329       C  0.71376627  0.71820510  0.97424929     0.20600
C1330       C  0.74426244  0.72382524  0.98369548    -0.02900
C1331       C  0.77845490  0.75746199  0.98239525    -0.06000
C1332       C  0.78170793  0.78600844  0.97211329     0.20900
C1333       C  0.80909128  0.76285771  0.99167875     0.19100
C1334       C  0.80528731  0.73480699  0.00222207    -0.17500
C1335       C  0.77114553  0.70190158  0.00382132    -0.19700
C1336       C  0.74039404  0.69619094  0.99468957     0.20600
C1337       C  0.70572654  0.66366358  0.99653593    -0.32700
C1338       C  0.67529168  0.65792098  0.98712270     0.01300
C1339       C  0.67973704  0.68501722  0.97580514    -0.24000
C1340       C  0.81510896  0.82033307  0.97171911    -0.28600
C1341       C  0.84560787  0.82579837  0.98100063     0.06900
C1342       C  0.84266723  0.79664953  0.99062938    -0.27300
H1343       H  0.75318984  0.80144399  0.95472169     0.11700
H1344       H  0.69439530  0.74231719  0.95634874     0.12800
H1345       H  0.82856291  0.73861673  0.00946823     0.11900
H1346       H  0.76875461  0.68097621  0.01225854     0.11100
H1347       H  0.70239623  0.64281880  0.00524097     0.16500
H1348       H  0.65619061  0.68091013  0.96865670     0.12400
H1349       H  0.81734700  0.84283872  0.96433568     0.15300
H1350       H  0.86601696  0.80106044  0.99800427     0.15000
C1351       C  0.63381690  0.72347781  0.90474375    -0.17800
C1352       C  0.62135849  0.69960585  0.91799953    -0.20000
C1353       C  0.58408924  0.67123351  0.91906614     0.20600
C1354       C  0.55915591  0.66656665  0.90660335    -0.02900
C1355       C  0.57173037  0.69074490  0.89321324    -0.06000
C1356       C  0.60920841  0.71945383  0.89234973     0.20900
C1357       C  0.54657083  0.68696674  0.88097487     0.19100
C1358       C  0.50936472  0.65839850  0.88201974    -0.17500
C1359       C  0.49704155  0.63407702  0.89517604    -0.19700
C1360       C  0.52160939  0.63808963  0.90761475     0.20600
C1361       C  0.50938785  0.61409593  0.92099294    -0.32700
C1362       C  0.53424095  0.61835635  0.93341597     0.01300
C1363       C  0.57147449  0.64736460  0.93236012    -0.24000
C1364       C  0.62097284  0.74480465  0.87955161    -0.28600
C1365       C  0.59561817  0.74238691  0.86782861     0.06900
C1366       C  0.55867445  0.71296011  0.86837118    -0.27300
H1367       H  0.66260660  0.74545735  0.90430359     0.11700
H1368       H  0.64086120  0.70347143  0.92747497     0.12800
H1369       H  0.48967147  0.65511606  0.87274077     0.11900
H1370       H  0.46816046  0.61235585  0.89570578     0.11100
H1371       H  0.48074205  0.59180403  0.92159312     0.16500
H1372       H  0.59106007  0.65105011  0.94177317     0.12400
H1373       H  0.64914354  0.76818230  0.87936813     0.15300
H1374       H  0.53894250  0.71179500  0.85955317     0.15000
C1375       C  0.33869155  0.45439110  0.88427605    -0.17800
C1376       C  0.36587446  0.46533051  0.89620856    -0.20000
C1377       C  0.36292356  0.44014187  0.90813372     0.20600
C1378       C  0.33313536  0.40311471  0.90766452    -0.02900
C1379       C  0.30575170  0.39201579  0.89558687    -0.06000
C1380       C  0.30819461  0.41806558  0.88405718     0.20900
C1381       C  0.27502616  0.35542533  0.89552957     0.19100
C1382       C  0.27278342  0.32989793  0.90712997    -0.17500
C1383       C  0.29992561  0.34093712  0.91911680    -0.19700
C1384       C  0.32975411  0.37767576  0.91968837     0.20600
C1385       C  0.35519839  0.38989146  0.93249069    -0.32700
C1386       C  0.38380431  0.42732479  0.93350891     0.01300
C1387       C  0.38822384  0.45187575  0.92094255    -0.24000
C1388       C  0.27924080  0.40784498  0.87301140    -0.28600
C1389       C  0.24795733  0.37207528  0.87342336     0.06900
C1390       C  0.24628414  0.34563784  0.88437078    -0.27300
H1391       H  0.34102502  0.47462953  0.87546479     0.11700
H1392       H  0.38867176  0.49382066  0.89637659     0.12800
H1393       H  0.24949044  0.30167596  0.90720422     0.11900
H1394       H  0.29702517  0.32100711  0.92820789     0.11100
H1395       H  0.35163547  0.37064313  0.94203629     0.16500
H1396       H  0.41022733  0.48072143  0.92152558     0.12400
H1397       H  0.28011313  0.42813461  0.86457548     0.15300
H1398       H  0.22182324  0.31813248  0.88466996     0.15000
C1399       C  0.78681482  0.03578217  0.96883730    -0.17800
C1400       C  0.75529483  0.03961158  0.96925593    -0.20000
C1401       C  0.73010962  0.02491576  0.98210272     0.20600
C1402       C  0.73686249  0.00617140  0.99465749    -0.02900
C1403       C  0.76812997  0.00143206  0.99401891    -0.06000
C1404       C  0.79338142  0.01664629  0.98112047     0.20900
C1405       C  0.77406405  0.98142335  0.00626768     0.19100
C1406       C  0.74908886  0.96702690  0.01918709    -0.17500
C1407       C  0.71856643  0.97241219  0.01999682    -0.19700
C1408       C  0.71216931  0.99178769  0.00777320     0.20600
C1409       C  0.68102478  0.99625796  0.00827353    -0.32700
C1410       C  0.67326302  0.01363897  0.99554927     0.01300
C1411       C  0.69799502  0.02801830  0.98249745    -0.24000
C1412       C  0.82480124  0.01255268  0.98076836    -0.28600
C1413       C  0.83075703  0.99247423  0.99286327     0.06900
C1414       C  0.80501875  0.97647539  0.00544865    -0.27300
H1415       H  0.80593551  0.04756108  0.95883028     0.11700
H1416       H  0.75064776  0.05412611  0.95953483     0.12800
H1417       H  0.75325831  0.95174540  0.02871458     0.11900
H1418       H  0.69971959  0.96107301  0.03011803     0.11100
H1419       H  0.66176697  0.98453074  0.01825315     0.16500
H1420       H  0.69208600  0.04130902  0.97264431     0.12400
H1421       H  0.84453855  0.02468490  0.97097566     0.15300
H1422       H  0.80973884  0.96123081  0.01482889     0.15000
C1423       C  0.21735099  0.96219225  0.97772137    -0.17800
C1424       C  0.24833708  0.95795434  0.97979248    -0.20000
C1425       C  0.27212085  0.97439356  0.99301364     0.20600
C1426       C  0.26464223  0.99528972  0.00428473    -0.02900
C1427       C  0.23388445  0.00030739  0.00198980    -0.06000
C1428       C  0.20996658  0.98341969  0.98870056     0.20900
C1429       C  0.22709507  0.02223384  0.01297773     0.19100
C1430       C  0.25055896  0.03823051  0.02632107    -0.17500
C1431       C  0.28076950  0.03284696  0.02870589    -0.19700
C1432       C  0.28820574  0.01165710  0.01770601     0.20600
C1433       C  0.31943995  0.00755380  0.01960422    -0.32700
C1434       C  0.32799175  0.98819033  0.00801441     0.01300
C1435       C  0.30380019  0.97114771  0.99491222    -0.24000
C1436       C  0.17892099  0.98778150  0.98674028    -0.28600
C1437       C  0.17239222  0.00985335  0.99757078     0.06900
C1438       C  0.19668135  0.02735479  0.01052880    -0.27300
H1439       H  0.19931256  0.94909471  0.96746002     0.11700
H1440       H  0.25374812  0.94185849  0.97102548     0.12800
H1441       H  0.24554962  0.05492371  0.03491460     0.11900
H1442       H  0.29860241  0.04565885  0.03905222     0.11100
H1443       H  0.33819617  0.02120496  0.02961252     0.16500
H1444       H  0.31022167  0.95620858  0.98592160     0.12400
H1445       H  0.15974186  0.97396115  0.97687655     0.15300
H1446       H  0.19096313  0.04370205  0.01905433     0.15000
C1447       C  0.35808692  0.89652110  0.89878704    -0.17800
C1448       C  0.32884524  0.87904136  0.88774293    -0.20000
C1449       C  0.29962414  0.88668452  0.88782941     0.20600
C1450       C  0.30022271  0.91272655  0.89899252    -0.02900
C1451       C  0.32970120  0.93026050  0.91019659    -0.06000
C1452       C  0.35861203  0.92188209  0.91017165     0.20900
C1453       C  0.32961849  0.95526610  0.92172585     0.19100
C1454       C  0.30050120  0.96308971  0.92175408    -0.17500
C1455       C  0.27139387  0.94584386  0.91063702    -0.19700
C1456       C  0.27080307  0.92039180  0.89929739     0.20600
C1457       C  0.24078705  0.90159350  0.88861272    -0.32700
C1458       C  0.23968599  0.87504043  0.87775089     0.01300
C1459       C  0.26928082  0.86793109  0.87730754    -0.24000
C1460       C  0.38676434  0.93788349  0.92189258    -0.28600
C1461       C  0.38619550  0.96179122  0.93385365     0.06900
C1462       C  0.35786882  0.97095832  0.93339417    -0.27300
H1463       H  0.38000924  0.88970452  0.89859822     0.11700
H1464       H  0.32884277  0.85914272  0.87926372     0.12800
H1465       H  0.29994462  0.98215815  0.93054426     0.11900
H1466       H  0.24903085  0.95200546  0.91106989     0.11100
H1467       H  0.21756396  0.90647431  0.88913590     0.16500
H1468       H  0.26802139  0.84694521  0.86910553     0.12400
H1469       H  0.40814226  0.93029416  0.92213278     0.15300
H1470       H  0.35686319  0.98913581  0.94253743     0.15000
C1471       C  0.49683490  0.86040184  0.89897599    -0.17800
C1472       C  0.50800404  0.84787503  0.88557252    -0.20000
C1473       C  0.54580279  0.86110428  0.88264238     0.20600
C1474       C  0.57265696  0.88767627  0.89317924    -0.02900
C1475       C  0.56134368  0.89993460  0.90682729    -0.06000
C1476       C  0.52323991  0.88616584  0.90976982     0.20900
C1477       C  0.58815539  0.92549171  0.91765503     0.19100
C1478       C  0.62597770  0.93910780  0.91461929    -0.17500
C1479       C  0.63717834  0.92698440  0.90111749    -0.19700
C1480       C  0.61076194  0.90099692  0.89041611     0.20600
C1481       C  0.62164549  0.88655636  0.87754517    -0.32700
C1482       C  0.59491202  0.85853135  0.86759512     0.01300
C1483       C  0.55713122  0.84677447  0.86989362    -0.24000
C1484       C  0.51224549  0.89838644  0.92343380    -0.28600
C1485       C  0.53885780  0.92391504  0.93431960     0.06900
C1486       C  0.57676676  0.93706776  0.93132764    -0.27300
H1487       H  0.46748055  0.84957445  0.90100711     0.11700
H1488       H  0.48702260  0.82742685  0.87761288     0.12800
H1489       H  0.64692513  0.95889280  0.92278808     0.11900
H1490       H  0.66650942  0.93744352  0.89920544     0.11100
H1491       H  0.65065607  0.89487982  0.87604304     0.16500
H1492       H  0.53647917  0.82454562  0.86243151     0.12400
H1493       H  0.48301068  0.88816905  0.92553726     0.15300
H1494       H  0.59764350  0.95703490  0.93947807     0.15000
C1495       C  0.93216103  0.64879433  0.09842691    -0.17800
C1496       C  0.94567347  0.63602642  0.08598502    -0.20000
C1497       C  0.93009740  0.59772131  0.08306119     0.20600
C1498       C  0.90085098  0.57198345  0.09287435    -0.02900
C1499       C  0.88709383  0.58488656  0.10541907    -0.06000
C1500       C  0.90274886  0.62350675  0.10814701     0.20900
C1501       C  0.85705516  0.55919506  0.11492888     0.19100
C1502       C  0.84159408  0.52089519  0.11204124    -0.17500
C1503       C  0.85556059  0.50812344  0.09975657    -0.19700
C1504       C  0.88505186  0.53340531  0.09003272     0.20600
C1505       C  0.89893464  0.52082733  0.07750966    -0.32700
C1506       C  0.92808074  0.54634937  0.06760599     0.01300
C1507       C  0.94328880  0.58479131  0.07048128    -0.24000
C1508       C  0.88772428  0.63616739  0.12008091    -0.28600
C1509       C  0.85693825  0.61074756  0.12914340     0.06900
C1510       C  0.84211385  0.57231421  0.12670727    -0.27300
H1511       H  0.94441745  0.67850052  0.10031217     0.11700
H1512       H  0.96821733  0.65616769  0.07857552     0.12800
H1513       H  0.81847343  0.50079076  0.11920750     0.11900
H1514       H  0.84304333  0.47842540  0.09776562     0.11100
H1515       H  0.88693444  0.49120529  0.07543163     0.16500
H1516       H  0.96590497  0.60482321  0.06305923     0.12400
H1517       H  0.89845966  0.66576512  0.12167623     0.15300
H1518       H  0.81780892  0.55276280  0.13346385     0.15000
C1519       C  0.73566392  0.66864959  0.09136198    -0.17800
C1520       C  0.70945912  0.65925221  0.07907808    -0.20000
C1521       C  0.67551061  0.62562544  0.07964040     0.20600
C1522       C  0.66740992  0.60174832  0.09296159    -0.02900
C1523       C  0.69383537  0.61125247  0.10538372    -0.06000
C1524       C  0.72834992  0.64459167  0.10441770     0.20900
C1525       C  0.68641075  0.58658466  0.11836682     0.19100
C1526       C  0.65214779  0.55335803  0.11909596    -0.17500
C1527       C  0.62594589  0.54399583  0.10680087    -0.19700
C1528       C  0.63357033  0.56767445  0.09355673     0.20600
C1529       C  0.60862546  0.55716181  0.08060601    -0.32700
C1530       C  0.61713253  0.58010227  0.06695890     0.01300
C1531       C  0.65023218  0.61480137  0.06680775    -0.24000
C1532       C  0.75561285  0.65232980  0.11607747    -0.28600
C1533       C  0.74893840  0.62701756  0.12854506     0.06900
C1534       C  0.71408869  0.59468980  0.12991142    -0.27300
H1535       H  0.76201665  0.69434531  0.09045944     0.11700
H1536       H  0.71609896  0.67791524  0.06894880     0.12800
H1537       H  0.64596495  0.53417025  0.12898214     0.11900
H1538       H  0.60004366  0.51777266  0.10746324     0.11100
H1539       H  0.58321619  0.53040906  0.08090576     0.16500
H1540       H  0.65720927  0.63269491  0.05637285     0.12400
H1541       H  0.78282368  0.67696440  0.11497540     0.15300
H1542       H  0.70935312  0.57500288  0.13943425     0.15000
C1543       C  0.60552291  0.06947384  0.34694161    -0.17800
C1544       C  0.60588654  0.03601534  0.34747943    -0.20000
C1545       C  0.62309299  0.02681631  0.33520369     0.20600
C1546       C  0.63958179  0.05134382  0.32210251    -0.02900
C1547       C  0.63995479  0.08553903  0.32174062    -0.06000
C1548       C  0.62283141  0.09456136  0.33424239     0.20900
C1549       C  0.65825821  0.11107352  0.30911298     0.19100
C1550       C  0.67463706  0.10140435  0.29662513    -0.17500
C1551       C  0.67360390  0.06717284  0.29681323    -0.19700
C1552       C  0.65662664  0.04221666  0.30961084     0.20600
C1553       C  0.65757891  0.00895400  0.31043574    -0.32700
C1554       C  0.64280666  0.98522830  0.32385380     0.01300
C1555       C  0.62508929  0.99410856  0.33606181    -0.24000
C1556       C  0.62408573  0.12889883  0.33404319    -0.28600
C1557       C  0.64342035  0.15497150  0.32188493     0.06900
C1558       C  0.66045339  0.14602768  0.30941385    -0.27300
H1559       H  0.59229857  0.07606286  0.35663493     0.11700
H1560       H  0.59301427  0.01748630  0.35759101     0.12800
H1561       H  0.68858045  0.12047858  0.28678818     0.11900
H1562       H  0.68682164  0.06057275  0.28711945     0.11100
H1563       H  0.67161888  0.00255942  0.30102573     0.16500
H1564       H  0.61357147  0.97597059  0.34640009     0.12400
H1565       H  0.61124057  0.13605670  0.34372289     0.15300
H1566       H  0.67531398  0.16620280  0.30003144     0.15000
C1567       C  0.75888955  0.64604761  0.33154927    -0.17800
C1568       C  0.75750965  0.61164322  0.33112711    -0.20000
C1569       C  0.72726049  0.57983446  0.33781656     0.20600
C1570       C  0.69837067  0.58284096  0.34520855    -0.02900
C1571       C  0.70024788  0.61776730  0.34601374    -0.06000
C1572       C  0.73037048  0.64944032  0.33892318     0.20900
C1573       C  0.67164313  0.62082244  0.35367300     0.19100
C1574       C  0.64122531  0.58899666  0.36021394    -0.17500
C1575       C  0.63893772  0.55428798  0.35906418    -0.19700
C1576       C  0.66731619  0.55086572  0.35158583     0.20600
C1577       C  0.66494728  0.51598891  0.35019842    -0.32700
C1578       C  0.69371242  0.51276255  0.34292483     0.01300
C1579       C  0.72503994  0.54496712  0.33697502    -0.24000
C1580       C  0.73100943  0.68367154  0.33909059    -0.28600
C1581       C  0.70267988  0.68681579  0.34684963     0.06900
C1582       C  0.67350391  0.65546065  0.35434272    -0.27300
H1583       H  0.78225900  0.67000460  0.32608215     0.11700
H1584       H  0.77988467  0.60980660  0.32535565     0.12800
H1585       H  0.61893478  0.59086706  0.36605349     0.11900
H1586       H  0.61493341  0.53008655  0.36403736     0.11100
H1587       H  0.64075360  0.49134221  0.35479118     0.16500
H1588       H  0.74709538  0.54265281  0.33113296     0.12400
H1589       H  0.75333384  0.70775896  0.33317984     0.15300
H1590       H  0.65122968  0.65768605  0.36002805     0.15000
C1591       C  0.60487293  0.00515988  0.42555551    -0.17800
C1592       C  0.62200578  0.99515568  0.41360844    -0.20000
C1593       C  0.62348714  0.96224621  0.41498254     0.20600
C1594       C  0.60884839  0.93994227  0.42882874    -0.02900
C1595       C  0.59166753  0.95012282  0.44093612    -0.06000
C1596       C  0.58902110  0.98248835  0.43910209     0.20900
C1597       C  0.57531163  0.92681922  0.45440590     0.19100
C1598       C  0.57773377  0.89447646  0.45597667    -0.17500
C1599       C  0.59481741  0.88444939  0.44399866    -0.19700
C1600       C  0.60973595  0.90654381  0.43021746     0.20600
C1601       C  0.62388169  0.89492754  0.41748500    -0.32700
C1602       C  0.63694073  0.91612068  0.40329105     0.01300
C1603       C  0.63773483  0.95040369  0.40240815    -0.24000
C1604       C  0.56859801  0.99033276  0.45031007    -0.28600
C1605       C  0.55048104  0.96606843  0.46320115     0.06900
C1606       C  0.55486461  0.93502943  0.46550060    -0.27300
H1607       H  0.60311596  0.03011099  0.42397739     0.11700
H1608       H  0.63317846  0.01263632  0.40306943     0.12800
H1609       H  0.56544546  0.87633591  0.46624884     0.11900
H1610       H  0.59540477  0.85880666  0.44530045     0.11100
H1611       H  0.62320988  0.86856683  0.41836412     0.16500
H1612       H  0.64767629  0.96705729  0.39157631     0.12400
H1613       H  0.56446201  0.01381004  0.44838798     0.15300
H1614       H  0.54016252  0.91593529  0.47525126     0.15000
C1615       C  0.53442382  0.69498183  0.43742558    -0.17800
C1616       C  0.51985335  0.66864933  0.44980325    -0.20000
C1617       C  0.53389493  0.64473069  0.45265538     0.20600
C1618       C  0.56324169  0.64768345  0.44306530    -0.02900
C1619       C  0.57765237  0.67398578  0.43044700    -0.06000
C1620       C  0.56312855  0.69771627  0.42759016     0.20900
C1621       C  0.60611569  0.67604972  0.42052375     0.19100
C1622       C  0.62035125  0.65230794  0.42343981    -0.17500
C1623       C  0.60613036  0.62631587  0.43593725    -0.19700
C1624       C  0.57738141  0.62354940  0.44573145     0.20600
C1625       C  0.56132622  0.59591209  0.45760300    -0.32700
C1626       C  0.53097048  0.59171769  0.46667200     0.01300
C1627       C  0.51799733  0.61680540  0.46441154    -0.24000
C1628       C  0.57732977  0.72351425  0.41488699    -0.28600
C1629       C  0.60554776  0.72557475  0.40482929     0.06900
C1630       C  0.61970943  0.70161450  0.40778804    -0.27300
H1631       H  0.52291827  0.71293824  0.43542425     0.11700
H1632       H  0.49727172  0.66669812  0.45703260     0.12800
H1633       H  0.64228110  0.65359524  0.41594550     0.11900
H1634       H  0.61723474  0.60796002  0.43777933     0.11100
H1635       H  0.57067464  0.57597736  0.45902374     0.16500
H1636       H  0.49408888  0.61308559  0.47117766     0.12400
H1637       H  0.56619547  0.74175614  0.41275666     0.15300
H1638       H  0.64162782  0.70300506  0.40024253     0.15000
C1639       C  0.77553823  0.80658870  0.23305582    -0.17800
C1640       C  0.79280112  0.79687041  0.22109190    -0.20000
C1641       C  0.78591601  0.76025220  0.21991253     0.20600
C1642       C  0.76057846  0.73287072  0.23061696    -0.02900
C1643       C  0.74349409  0.74278926  0.24280992    -0.06000
C1644       C  0.75138684  0.77991210  0.24411409     0.20900
C1645       C  0.71978350  0.71594788  0.25408524     0.19100
C1646       C  0.71216479  0.67909091  0.25264275    -0.17500
C1647       C  0.72881973  0.66915128  0.24045317    -0.19700
C1648       C  0.75351947  0.69594977  0.22956946     0.20600
C1649       C  0.77248898  0.68690841  0.21809856    -0.32700
C1650       C  0.79874434  0.71442765  0.20790940     0.01300
C1651       C  0.80498864  0.75084212  0.20864984    -0.24000
C1652       C  0.73647078  0.79018328  0.25690635    -0.28600
C1653       C  0.71468879  0.76418415  0.26877697     0.06900
C1654       C  0.70552698  0.72681631  0.26701355    -0.27300
H1655       H  0.78184039  0.83521908  0.23392328     0.11700
H1656       H  0.81206643  0.81815596  0.21294645     0.12800
H1657       H  0.69394517  0.65811671  0.26115378     0.11900
H1658       H  0.72308930  0.64069015  0.23978490     0.11100
H1659       H  0.76825288  0.65894549  0.21757732     0.16500
H1660       H  0.82564001  0.77200028  0.20084909     0.12400
H1661       H  0.74375143  0.81907071  0.25810609     0.15300
H1662       H  0.68865020  0.70654443  0.27604767     0.15000
C1663       C  0.41541524  0.04865820  0.36387283    -0.17800
C1664       C  0.44948910  0.08209813  0.36387931    -0.20000
C1665       C  0.45399261  0.11284807  0.35503709     0.20600
C1666       C  0.42361403  0.10983948  0.34620731    -0.02900
C1667       C  0.38951501  0.07570134  0.34581541    -0.06000
C1668       C  0.38537939  0.04504836  0.35476221     0.20900
C1669       C  0.35987539  0.07203834  0.33620543     0.19100
C1670       C  0.36418162  0.10294390  0.32756261    -0.17500
C1671       C  0.39754373  0.13701685  0.32831870    -0.19700
C1672       C  0.42752642  0.14068021  0.33748265     0.20600
C1673       C  0.46161956  0.17432609  0.33773142    -0.32700
C1674       C  0.49243903  0.17715673  0.34597787     0.01300
C1675       C  0.48845049  0.14625829  0.35459326    -0.24000
C1676       C  0.35164830  0.01106820  0.35410779    -0.28600
C1677       C  0.32247040  0.00672910  0.34407607     0.06900
C1678       C  0.32680460  0.03739105  0.33515871    -0.27300
H1679       H  0.41275731  0.02536626  0.37078284     0.11700
H1680       H  0.47238135  0.08386536  0.37077697     0.12800
H1681       H  0.34175662  0.10074280  0.32016467     0.11900
H1682       H  0.40011384  0.16037443  0.32149329     0.11100
H1683       H  0.46476762  0.19785356  0.33083171     0.16500
H1684       H  0.51217575  0.14824783  0.36087941     0.12400
H1685       H  0.34873537  0.98738055  0.36080294     0.15300
H1686       H  0.30450620  0.03418570  0.32737321     0.15000
C1687       C  0.97238784  0.55421134  0.33682216    -0.17800
C1688       C  0.93739901  0.52190045  0.33638172    -0.20000
C1689       C  0.90953203  0.51941667  0.32606665     0.20600
C1690       C  0.91735262  0.54930051  0.31571040    -0.02900
C1691       C  0.95306753  0.58151107  0.31582045    -0.06000
C1692       C  0.98041153  0.58438309  0.32673391     0.20900
C1693       C  0.96097891  0.61129919  0.30539062     0.19100
C1694       C  0.93329168  0.60854858  0.29488890    -0.17500
C1695       C  0.89766902  0.57708624  0.29507897    -0.19700
C1696       C  0.88921120  0.54744911  0.30557082     0.20600
C1697       C  0.85302945  0.51636956  0.30634554    -0.32700
C1698       C  0.84516115  0.48658551  0.31667262     0.01300
C1699       C  0.87373603  0.48799402  0.32621995    -0.24000
C1700       C  0.01473658  0.61779821  0.32775068    -0.28600
C1701       C  0.02250531  0.64791875  0.31761177     0.06900
C1702       C  0.99588409  0.64390410  0.30610447    -0.27300
H1703       H  0.99304410  0.55576107  0.34519648     0.11700
H1704       H  0.93184990  0.49916396  0.34439996     0.12800
H1705       H  0.93890312  0.63119241  0.28680349     0.11900
H1706       H  0.87661013  0.57610847  0.28712008     0.11100
H1707       H  0.83109190  0.51524899  0.29893190     0.16500
H1708       H  0.86761529  0.46510591  0.33426716     0.12400
H1709       H  0.03509056  0.62067374  0.33662268     0.15300
H1710       H  0.00145060  0.66713615  0.29837861     0.15000
C1711       C  0.99515500  0.60512582  0.42758310    -0.17800
C1712       C  0.00792816  0.63223835  0.41547361    -0.20000
C1713       C  0.04613611  0.65654572  0.41320940     0.20600
C1714       C  0.07164329  0.65406028  0.42355808    -0.02900
C1715       C  0.05876154  0.62652445  0.43572929    -0.06000
C1716       C  0.02032302  0.60165473  0.43764456     0.20900
C1717       C  0.08443826  0.62305922  0.44558679     0.19100
C1718       C  0.12257319  0.64773354  0.44352963    -0.17500
C1719       C  0.13526914  0.67515645  0.43160788    -0.19700
C1720       C  0.11009589  0.67829978  0.42143388     0.20600
C1721       C  0.12281497  0.70444260  0.40886383    -0.32700
C1722       C  0.09773222  0.70624316  0.39803896     0.01300
C1723       C  0.05931021  0.68245415  0.40049239    -0.24000
C1724       C  0.00791851  0.57290274  0.44911715    -0.28600
C1725       C  0.03353488  0.56858359  0.45854734     0.06900
C1726       C  0.07165228  0.59412629  0.45689237    -0.27300
H1727       H  0.96556835  0.58635861  0.42886185     0.11700
H1728       H  0.98789166  0.63378234  0.40769392     0.12800
H1729       H  0.14265488  0.64547457  0.45099732     0.11900
H1730       H  0.16488602  0.69349988  0.43014970     0.11100
H1731       H  0.15242420  0.72227315  0.40708191     0.16500
H1732       H  0.03965219  0.68350991  0.39228568     0.12400
H1733       H  0.97856914  0.55279315  0.45017013     0.15300
H1734       H  0.09140080  0.59042926  0.46398236     0.15000
C1735       C  0.31471334  0.83637464  0.43424330    -0.17800
C1736       C  0.34128372  0.85103250  0.44657309    -0.20000
C1737       C  0.36839793  0.88898065  0.44677282     0.20600
C1738       C  0.36849267  0.91245804  0.43450362    -0.02900
C1739       C  0.34198998  0.89758808  0.42198852    -0.06000
C1740       C  0.31492787  0.85933953  0.42182510     0.20900
C1741       C  0.34281846  0.92101274  0.40957336     0.19100
C1742       C  0.36964260  0.95900529  0.40979944    -0.17500
C1743       C  0.39577260  0.97373974  0.42220143    -0.19700
C1744       C  0.39558164  0.95069662  0.43453272     0.20600
C1745       C  0.42277335  0.96499917  0.44658273    -0.32700
C1746       C  0.42354987  0.94157076  0.45847314     0.01300
C1747       C  0.39612494  0.90372139  0.45869538    -0.24000
C1748       C  0.28853959  0.84488478  0.40930497    -0.28600
C1749       C  0.28911656  0.86826600  0.39693394     0.06900
C1750       C  0.31670931  0.90621918  0.39715310    -0.27300
H1751       H  0.29415033  0.80699388  0.43435912     0.11700
H1752       H  0.34078629  0.83261685  0.45589667     0.12800
H1753       H  0.37049890  0.97732339  0.40033868     0.11900
H1754       H  0.41641368  0.00310043  0.42204713     0.11100
H1755       H  0.44441043  0.99403850  0.44634677     0.16500
H1756       H  0.39725855  0.88566122  0.46778796     0.12400
H1757       H  0.26737953  0.81568606  0.40931153     0.15300
H1758       H  0.31761149  0.92470252  0.38775526     0.15000
C1759       C  0.03232605  0.81683827  0.22697004    -0.17800
C1760       C  0.00455462  0.80289346  0.21515045    -0.20000
C1761       C  0.97550228  0.76575815  0.21566033     0.20600
C1762       C  0.97488340  0.74218620  0.22799761    -0.02900
C1763       C  0.00273454  0.75634663  0.23998342    -0.06000
C1764       C  0.03144474  0.79396344  0.23956711     0.20900
C1765       C  0.00133039  0.73304016  0.25257560     0.19100
C1766       C  0.97269647  0.69572783  0.25296129    -0.17500
C1767       C  0.94506867  0.68174582  0.24113834    -0.19700
C1768       C  0.94567363  0.70482029  0.22871473     0.20600
C1769       C  0.91665896  0.69171805  0.21747052    -0.32700
C1770       C  0.91630378  0.71555567  0.20564946     0.01300
C1771       C  0.94612440  0.75224631  0.20454634    -0.24000
C1772       C  0.05847557  0.80806594  0.25182552    -0.28600
C1773       C  0.05703898  0.78498278  0.26450701     0.06900
C1774       C  0.02833035  0.74744489  0.26468481    -0.27300
H1775       H  0.05419568  0.84570876  0.22639456     0.11700
H1776       H  0.00546741  0.82135021  0.20575030     0.12800
H1777       H  0.97139626  0.67747057  0.26254061     0.11900
H1778       H  0.92286852  0.65304119  0.24187030     0.11100
H1779       H  0.89314199  0.66372707  0.21851031     0.16500
H1780       H  0.94526522  0.77079192  0.19562584     0.12400
H1781       H  0.08058772  0.83687068  0.25146393     0.15300
H1782       H  0.02684613  0.72916841  0.27430324     0.15000
C1783       C  0.97113200  0.30548199  0.08129963    -0.17800
C1784       C  0.95451785  0.27559021  0.09204081    -0.20000
C1785       C  0.92780686  0.27293272  0.10311561     0.20600
C1786       C  0.91870603  0.30142711  0.10372832    -0.02900
C1787       C  0.93556840  0.33168413  0.09289241    -0.06000
C1788       C  0.96135193  0.33328475  0.08143639     0.20900
C1789       C  0.92540416  0.35940526  0.09306117     0.19100
C1790       C  0.89949166  0.35731510  0.10446181    -0.17500
C1791       C  0.88273376  0.32733404  0.11516673    -0.19700
C1792       C  0.89163348  0.29891667  0.11470244     0.20600
C1793       C  0.87297484  0.26739234  0.12457668    -0.32700
C1794       C  0.88113312  0.23846051  0.12366956     0.01300
C1795       C  0.90904327  0.24167338  0.11315245    -0.24000
C1796       C  0.97548406  0.36153604  0.06979347    -0.28600
C1797       C  0.96382920  0.38806050  0.06921766     0.06900
C1798       C  0.93982285  0.38758213  0.08131981    -0.27300
H1799       H  0.99097005  0.30635192  0.07260157     0.11700
H1800       H  0.96194833  0.25408112  0.09142869     0.12800
H1801       H  0.89142686  0.37837538  0.10482058     0.11900
H1802       H  0.86215782  0.32594325  0.12357254     0.11100
H1803       H  0.85123999  0.26469661  0.13262413     0.16500
H1804       H  0.91503610  0.21915450  0.11236688     0.12400
H1805       H  0.99411158  0.36162476  0.06063839     0.15300
H1806       H  0.93056429  0.40774041  0.08104542     0.15000
C1807       C  0.67557869  0.12318529  0.11522664    -0.17800
C1808       C  0.64571365  0.10630830  0.10444831    -0.20000
C1809       C  0.64231648  0.07839514  0.09380167     0.20600
C1810       C  0.66856815  0.06642203  0.09446362    -0.02900
C1811       C  0.69863056  0.08331005  0.10542369    -0.06000
C1812       C  0.70252851  0.11235607  0.11561881     0.20900
C1813       C  0.72563088  0.07224679  0.10567278     0.19100
C1814       C  0.72172307  0.04370226  0.09531285    -0.17500
C1815       C  0.69208300  0.02713183  0.08441874    -0.19700
C1816       C  0.66572272  0.03872141  0.08370668     0.20600
C1817       C  0.63767012  0.02435483  0.07192687    -0.32700
C1818       C  0.61244449  0.03747058  0.07060438     0.01300
C1819       C  0.61424620  0.06359934  0.08200522    -0.24000
C1820       C  0.73407638  0.13107710  0.12550554    -0.28600
C1821       C  0.76160444  0.12096143  0.12540591     0.06900
C1822       C  0.75683388  0.09099908  0.11575700    -0.27300
H1823       H  0.67803938  0.14530917  0.12301438     0.11700
H1824       H  0.62578924  0.11580368  0.10414889     0.12800
H1825       H  0.74211432  0.03479770  0.09535768     0.11900
H1826       H  0.69026867  0.00582300  0.07627873     0.11100
H1827       H  0.63663505  0.00421161  0.06329007     0.16500
H1828       H  0.59516823  0.07409133  0.08113838     0.12400
H1829       H  0.73802037  0.15445804  0.13283301     0.15300
H1830       H  0.77834811  0.08358221  0.11553586     0.15000
C1831       C  0.74499174  0.03263751  0.25151017    -0.17800
C1832       C  0.75814410  0.05678143  0.23831962    -0.20000
C1833       C  0.77945601  0.05241201  0.22632505     0.20600
C1834       C  0.78735243  0.02318289  0.22759394    -0.02900
C1835       C  0.77416910  0.99886426  0.24095544    -0.06000
C1836       C  0.75296816  0.00369946  0.25297319     0.20900
C1837       C  0.78256488  0.97002242  0.24236959     0.19100
C1838       C  0.80394226  0.96569821  0.23038395    -0.17500
C1839       C  0.81725985  0.98995098  0.21722723    -0.19700
C1840       C  0.80928253  0.01887334  0.21575430     0.20600
C1841       C  0.82414902  0.04449721  0.20304352    -0.32700
C1842       C  0.81732089  0.07429931  0.20199520     0.01300
C1843       C  0.79433652  0.07766286  0.21347179    -0.24000
C1844       C  0.74006241  0.97953747  0.26623532    -0.28600
C1845       C  0.74796444  0.95040198  0.26772677     0.06900
C1846       C  0.76944532  0.94602416  0.25571577    -0.27300
H1847       H  0.72873486  0.03674363  0.26062962     0.11700
H1848       H  0.75194575  0.07913791  0.23758594     0.12800
H1849       H  0.81062987  0.94369824  0.23124807     0.11900
H1850       H  0.83412357  0.98629672  0.20827251     0.11100
H1851       H  0.84277912  0.04259865  0.19445918     0.16500
H1852       H  0.79006623  0.10132801  0.21294173     0.12400
H1853       H  0.72354344  0.98330198  0.27534207     0.15300
H1854       H  0.77565001  0.92368844  0.25664124     0.15000
C1855       C  0.37245324  0.28517398  0.09771744    -0.17800
C1856       C  0.38290498  0.30835247  0.08423562    -0.20000
C1857       C  0.41982383  0.33697730  0.08228963     0.20600
C1858       C  0.44650969  0.34234857  0.09403444    -0.02900
C1859       C  0.43596069  0.31889924  0.10765081    -0.06000
C1860       C  0.39873930  0.29015412  0.10947061     0.20900
C1861       C  0.46280672  0.32361856  0.11921690     0.19100
C1862       C  0.49976455  0.35214504  0.11720523    -0.17500
C1863       C  0.51010250  0.37571199  0.10382506    -0.19700
C1864       C  0.48373782  0.37098002  0.09213710     0.20600
C1865       C  0.49384792  0.39456194  0.07868427    -0.32700
C1866       C  0.46721134  0.38984575  0.06705814     0.01300
C1867       C  0.43035293  0.36054699  0.06888752    -0.24000
C1868       C  0.38880184  0.26586820  0.12262015    -0.28600
C1869       C  0.41569137  0.26942950  0.13377368     0.06900
C1870       C  0.45250286  0.29872329  0.13218626    -0.27300
H1871       H  0.34383717  0.26310033  0.09887627     0.11700
H1872       H  0.36208263  0.30386929  0.07531444     0.12800
H1873       H  0.52075100  0.35609074  0.12593729     0.11900
H1874       H  0.53879705  0.39753657  0.10257448     0.11100
H1875       H  0.52229313  0.41699185  0.07744262     0.16500
H1876       H  0.40949766  0.35651006  0.06005483     0.12400
H1877       H  0.36072183  0.24253313  0.12357775     0.15300
H1878       H  0.47341992  0.30072612  0.14053821     0.15000
C1879       C  0.37184175  0.07946246  0.10525388    -0.17800
C1880       C  0.38113962  0.06571717  0.09169059    -0.20000
C1881       C  0.41842745  0.08043031  0.08720301     0.20600
C1882       C  0.44667276  0.10871139  0.09666675    -0.02900
C1883       C  0.43729645  0.12252409  0.11037462    -0.06000
C1884       C  0.39966081  0.10812966  0.11457220     0.20900
C1885       C  0.46552530  0.15167192  0.11951791     0.19100
C1886       C  0.50281073  0.16607780  0.11514821    -0.17500
C1887       C  0.51209993  0.15210766  0.10167702    -0.19700
C1888       C  0.48426289  0.12366527  0.09228575     0.20600
C1889       C  0.49337923  0.10997978  0.07859202    -0.32700
C1890       C  0.46540910  0.08184554  0.06905620     0.01300
C1891       C  0.42794771  0.06738159  0.07341810    -0.24000
C1892       C  0.39048877  0.12410284  0.12742960    -0.28600
C1893       C  0.41845214  0.15452116  0.13596288     0.06900
C1894       C  0.45590270  0.16728122  0.13231888    -0.27300
H1895       H  0.34283380  0.06812787  0.10828452     0.11700
H1896       H  0.35911975  0.04385861  0.08459619     0.12800
H1897       H  0.52478701  0.18853268  0.12202278     0.11900
H1898       H  0.54108278  0.16386139  0.09849428     0.11100
H1899       H  0.52228638  0.12121518  0.07536773     0.16500
H1900       H  0.40616294  0.04534977  0.06628506     0.12400
H1901       H  0.36161646  0.11492330  0.12997055     0.15300
H1902       H  0.47739592  0.19125716  0.13870118     0.15000
C1903       C  0.22143917  0.01543905  0.22177690    -0.17800
C1904       C  0.20930285  0.98550139  0.23244482    -0.20000
C1905       C  0.23443461  0.98288907  0.24285239     0.20600
C1906       C  0.27237818  0.01037852  0.24222233    -0.02900
C1907       C  0.28472251  0.04051537  0.23133704    -0.06000
C1908       C  0.25899948  0.04327462  0.22122555     0.20900
C1909       C  0.32257005  0.06842100  0.23091930     0.19100
C1910       C  0.34774978  0.06561794  0.24122414    -0.17500
C1911       C  0.33548851  0.03595859  0.25207180    -0.19700
C1912       C  0.29780687  0.00838824  0.25279111     0.20600
C1913       C  0.28495928  0.97964101  0.26425386    -0.32700
C1914       C  0.24691554  0.95264000  0.26533874     0.01300
C1915       C  0.22204672  0.95405111  0.25425107    -0.24000
C1916       C  0.27108318  0.07430662  0.21108473    -0.28600
C1917       C  0.30861183  0.10248415  0.21077979     0.06900
C1918       C  0.33431008  0.09912844  0.22057006    -0.27300
H1919       H  0.20131600  0.01706208  0.21408603     0.11700
H1920       H  0.18006944  0.96469935  0.23275417     0.12800
H1921       H  0.37688716  0.08673146  0.24108777     0.11900
H1922       H  0.35544327  0.03488425  0.26007497     0.11100
H1923       H  0.30448254  0.97902162  0.27268264     0.16500
H1924       H  0.19269191  0.93376466  0.25499408     0.12400
H1925       H  0.25120270  0.07709684  0.20368316     0.15300
H1926       H  0.36313783  0.12112330  0.22053367     0.15000
C1927       C  0.45949372  0.38240670  0.35690129    -0.17800
C1928       C  0.42369719  0.37688911  0.35876878    -0.20000
C1929       C  0.39529716  0.35390647  0.34801747     0.20600
C1930       C  0.40295095  0.33608543  0.33531060    -0.02900
C1931       C  0.43893008  0.34110992  0.33360086    -0.06000
C1932       C  0.46739712  0.36466625  0.34437288     0.20900
C1933       C  0.44634226  0.32239212  0.32119215     0.19100
C1934       C  0.41796827  0.29956536  0.31039396    -0.17500
C1935       C  0.38259483  0.29544409  0.31181109    -0.19700
C1936       C  0.37476734  0.31350009  0.32424175     0.20600
C1937       C  0.33950236  0.30993814  0.32563723    -0.32700
C1938       C  0.33178833  0.32790088  0.33820435     0.01300
C1939       C  0.35963482  0.34916242  0.34953868    -0.24000
C1940       C  0.50304996  0.36945852  0.34262203    -0.28600
C1941       C  0.51021131  0.34996571  0.33063384     0.06900
C1942       C  0.48181645  0.32640920  0.31998243    -0.27300
H1943       H  0.48096716  0.40039828  0.36532357     0.11700
H1944       H  0.41829610  0.39086966  0.36855326     0.12800
H1945       H  0.42319149  0.28504503  0.30079129     0.11900
H1946       H  0.36130026  0.27800255  0.30321066     0.11100
H1947       H  0.31820497  0.29363458  0.31682517     0.16500
H1948       H  0.35410245  0.36360613  0.35909010     0.12400
H1949       H  0.52480889  0.38693184  0.35106017     0.15300
H1950       H  0.48734029  0.31101776  0.31088008     0.15000
C1951       C  0.93158507  0.32460455  0.36013407    -0.17800
C1952       C  0.89535744  0.31854325  0.36044019    -0.20000
C1953       C  0.87828834  0.32045084  0.34620269     0.20600
C1954       C  0.89810253  0.32873731  0.33151312    -0.02900
C1955       C  0.93449347  0.33447574  0.33118267    -0.06000
C1956       C  0.95128271  0.33242615  0.34556635     0.20900
C1957       C  0.95391031  0.34192641  0.31643830     0.19100
C1958       C  0.93701944  0.34420815  0.30221960    -0.17500
C1959       C  0.90123750  0.33918054  0.30258254    -0.19700
C1960       C  0.88159355  0.33136009  0.31714019     0.20600
C1961       C  0.84585426  0.32647899  0.31759538    -0.32700
C1962       C  0.82599216  0.31816733  0.33212029     0.01300
C1963       C  0.84200458  0.31471190  0.34638205    -0.24000
C1964       C  0.98715522  0.33742358  0.34508755    -0.28600
C1965       C  0.00630979  0.34365152  0.33036062     0.06900
C1966       C  0.98957337  0.34628100  0.31611094    -0.27300
H1967       H  0.94411027  0.32288514  0.37128882     0.11700
H1968       H  0.88071053  0.31241655  0.37182073     0.12800
H1969       H  0.95149223  0.34988773  0.29080641     0.11900
H1970       H  0.88884919  0.34125227  0.29145244     0.11100
H1971       H  0.83338217  0.32932496  0.30662618     0.16500
H1972       H  0.82678114  0.30888858  0.35760950     0.12400
H1973       H  0.99953384  0.33496600  0.35615344     0.15300
H1974       H  0.00396371  0.35094960  0.30471310     0.15000
C1975       C  0.99149016  0.37328043  0.43063855    -0.17800
C1976       C  0.00401630  0.35698808  0.41930088    -0.20000
C1977       C  0.04180229  0.36785414  0.41839385     0.20600
C1978       C  0.06695198  0.39431087  0.42947812    -0.02900
C1979       C  0.05432684  0.41087960  0.44090385    -0.06000
C1980       C  0.01651457  0.40082909  0.44126349     0.20900
C1981       C  0.07987121  0.43884370  0.45139516     0.19100
C1982       C  0.11740464  0.44873682  0.45088143    -0.17500
C1983       C  0.12983777  0.43219957  0.43963965    -0.19700
C1984       C  0.10500071  0.40554407  0.42865553     0.20600
C1985       C  0.11785728  0.39137842  0.41638455    -0.32700
C1986       C  0.09333755  0.36660182  0.40465755     0.01300
C1987       C  0.05509553  0.35410959  0.40611762    -0.24000
C1988       C  0.00482832  0.41987222  0.45162322    -0.28600
C1989       C  0.03055995  0.44904115  0.46146402     0.06900
C1990       C  0.06779780  0.45773287  0.46160562    -0.27300
H1991       H  0.96236243  0.36509436  0.43077613     0.11700
H1992       H  0.98426272  0.33658979  0.41093837     0.12800
H1993       H  0.13735609  0.47000916  0.45889661     0.11900
H1994       H  0.15912410  0.44107175  0.43923293     0.11100
H1995       H  0.14733738  0.40135822  0.41545129     0.16500
H1996       H  0.03581460  0.33502612  0.39723692     0.12400
H1997       H  0.97621246  0.41352451  0.45139022     0.15300
H1998       H  0.08765628  0.48050266  0.46908518     0.15000
C1999       C  0.30348305  0.45902072  0.44066201    -0.17800
C2000       C  0.32878159  0.47041635  0.45346306    -0.20000
C2001       C  0.35885447  0.46408169  0.45299007     0.20600
C2002       C  0.36300950  0.44532697  0.43963980    -0.02900
C2003       C  0.33782071  0.43435994  0.42662591    -0.06000
C2004       C  0.30799328  0.44139731  0.42708670     0.20900
C2005       C  0.34290854  0.41694635  0.41304139     0.19100
C2006       C  0.37252457  0.40990863  0.41267780    -0.17500
C2007       C  0.39739300  0.42066455  0.42556952    -0.19700
C2008       C  0.39312826  0.43874454  0.43900893     0.20600
C2009       C  0.41954659  0.45212416  0.45140698    -0.32700
C2010       C  0.41671684  0.47270938  0.46420329     0.01300
C2011       C  0.38590674  0.47783328  0.46518466    -0.24000
C2012       C  0.28325885  0.43068031  0.41398454    -0.28600
C2013       C  0.28813364  0.41319872  0.40038201     0.06900
C2014       C  0.31830022  0.40675987  0.40003870    -0.27300
H2015       H  0.28067818  0.46450130  0.44127792     0.11700
H2016       H  0.32513698  0.48470250  0.46363266     0.12800
H2017       H  0.37666395  0.39637960  0.40234291     0.11900
H2018       H  0.42038396  0.41547304  0.42489049     0.11100
H2019       H  0.44383508  0.44901945  0.45052436     0.16500
H2020       H  0.38427896  0.49441845  0.47492789     0.12400
H2021       H  0.26000914  0.43550619  0.41447951     0.15300
H2022       H  0.32237774  0.39310231  0.38973026     0.15000
C2023       C  0.01006003  0.17739580  0.21939595    -0.17800
C2024       C  0.03324936  0.19118609  0.23288842    -0.20000
C2025       C  0.03351026  0.21921559  0.24248849     0.20600
C2026       C  0.01099002  0.23427880  0.23817031    -0.02900
C2027       C  0.98799439  0.22075737  0.22440852    -0.06000
C2028       C  0.98697787  0.19163277  0.21518965     0.20900
C2029       C  0.96479333  0.23520802  0.22031477     0.19100
C2030       C  0.96570043  0.26382496  0.22969832    -0.17500
C2031       C  0.98843569  0.27717084  0.24334149    -0.19700
C2032       C  0.01072436  0.26218815  0.24781858     0.20600
C2033       C  0.03256850  0.27449189  0.26181589    -0.32700
C2034       C  0.05521809  0.25972936  0.26620197     0.01300
C2035       C  0.05566779  0.23223161  0.25638395    -0.24000
C2036       C  0.96127625  0.17574170  0.20256671    -0.28600
C2037       C  0.93649746  0.18846246  0.19912024     0.06900
C2038       C  0.93942013  0.21917079  0.20757000    -0.27300
H2039       H  0.00964384  0.15507195  0.21243171     0.11700
H2040       H  0.05048519  0.17942794  0.23598812     0.12800
H2041       H  0.94811291  0.27525151  0.22671903     0.11900
H2042       H  0.98813440  0.29882616  0.25054592     0.11100
H2043       H  0.03249872  0.29614930  0.26912135     0.16500
H2044       H  0.07319749  0.22085547  0.25958420     0.12400
H2045       H  0.95851591  0.15162244  0.19620579     0.15300
H2046       H  0.91975639  0.22840501  0.20512389     0.15000
C2047       C  0.22412465  0.22864052  0.21636623    -0.17800
C2048       C  0.21189768  0.24603057  0.22728777    -0.20000
C2049       C  0.23584324  0.27009334  0.23924905     0.20600
C2050       C  0.27301561  0.27808595  0.23967685    -0.02900
C2051       C  0.28539513  0.26061307  0.22863842    -0.06000
C2052       C  0.26054914  0.23504189  0.21718290     0.20900
C2053       C  0.32211238  0.26734330  0.22960726     0.19100
C2054       C  0.34646984  0.29246764  0.24113989    -0.17500
C2055       C  0.33420111  0.30967353  0.25206936    -0.19700
C2056       C  0.29736008  0.30208398  0.25164433     0.20600
C2057       C  0.28401653  0.31649593  0.26352507    -0.32700
C2058       C  0.24635880  0.30670830  0.26390362     0.01300
C2059       C  0.22278580  0.28461223  0.25130954    -0.24000
C2060       C  0.27210381  0.21512093  0.20730465    -0.28600
C2061       C  0.30819384  0.22075379  0.20872596     0.06900
C2062       C  0.33331528  0.24755909  0.21955227    -0.27300
H2063       H  0.20475472  0.20934645  0.20757656     0.11700
H2064       H  0.18333618  0.23972793  0.22669456     0.12800
H2065       H  0.37476094  0.29803332  0.24200163     0.11900
H2066       H  0.35327238  0.32812568  0.26116051     0.11100
H2067       H  0.30260090  0.33359468  0.27305539     0.16500
H2068       H  0.19376739  0.27688677  0.25139883     0.12400
H2069       H  0.25274242  0.19426264  0.19897094     0.15300
H2070       H  0.36104328  0.25160904  0.22066727     0.15000
loop_ 
_geom_bond_atom_site_label_1 
_geom_bond_atom_site_label_2 
_geom_bond_distance 
_geom_bond_site_symmetry_2 
_ccdc_geom_bond_type 
O1           Mg3   2.166       .  S
O1           Mg9   2.166       .  S
O1           C36   1.234       .  S
C2           O15   1.235       .  S
C2           O39   1.269       .  A
C2           H41   1.081       .  S
Mg3          O32   2.164       .  S
Mg3          O47   2.286       .  S
Mg3          O43   2.280       .  S
Mg3          O14   2.293       .  S
O4          Mg46   2.154       .  S
O4          Mg29   2.145       .  S
O4           C25   1.236       .  S
O5           C36   1.269       .  A
O5          Mg29   2.302       .  S
C6            O8   1.276       .  A
C6           O20   1.274       .  A
C6         C2013   1.487       .  S
O7           C35   1.271       .  A
O7           Mg9   2.304       .  S
O8          Mg40   2.294       .  S
Mg9          O15   2.154       .  S
Mg9          O23   2.281       .  S
Mg9          O11   2.320       .  S
C10          O48   1.272       .  A
C10          O16   1.273       .  A
C10        C1938   1.481       .  S
O11          C18   1.278       .  A
H12          C25   1.081       .  S
C13          O27   1.235       .  S
C13          O28   1.270       .  A
C13          H38   1.081       .  S
O14          C37   1.268       .  A
O15         Mg29   2.169       .  S
O16         Mg46   2.302       .  S
C17          O30   1.272       .  A
C17          O22   1.277       .  A
C17        C2058   1.491       .  S
C18          O45   1.272       .  A
C18        C2034   1.484       .  S
Mg19         O26   2.148       .  S
Mg19         O27   2.148       .  S
Mg19         O20   2.284       .  S
Mg19         O21   2.301       .  S
Mg19         O48   2.271       .  S
O21          C25   1.271       .  A
O22         Mg29   2.330       .  S
O23          C42   1.274       .  A
O24          C44   1.279       .  A
O24         Mg40   2.329       .  S
O26         Mg40   2.164       .  S
O26          C37   1.234       .  S
O27         Mg46   2.155       .  S
O28         Mg40   2.305       .  S
Mg29         O45   2.258       .  S
O30         Mg46   2.258       .  S
H31          C36   1.081       .  S
O32         Mg40   2.158       .  S
O32          C35   1.236       .  S
H33          C35   1.081       .  S
H34          C37   1.081       .  S
O39         Mg46   2.296       .  S
C42          O47   1.273       .  A
C42        C1965   1.484       .  S
O43          C44   1.274       .  A
C44        C1986   1.495       .  S
C49        C2061   1.484       .  S
C49          C50   1.401       .  A
C49          C54   1.415       .  A
C50          H69   1.085       .  S
C50          C51   1.402       .  A
C51        C1917   1.492       .  S
C51          C52   1.420       .  A
C52          C53   1.424       .  A
C52          C59   1.407       .  A
C53          C54   1.421       .  A
C53          C58   1.423       .  A
C54          C55   1.408       .  A
C55          H65   1.083       .  S
C55          C56   1.395       .  A
C56          H66   1.083       .  S
C56          C57   1.404       .  A
C57          C58   1.424       .  A
C57          C64   1.415       .  A
C58          C61   1.422       .  A
C59          H67   1.082       .  S
C59          C60   1.397       .  A
C60          H68   1.083       .  S
C60          C61   1.405       .  A
C61          C62   1.416       .  A
C62        C1893   1.482       .  S
C62          C63   1.396       .  A
C63          H70   1.086       .  S
C63          C64   1.393       .  A
C64        C1869   1.481       .  S
C71        C2037   1.482       .  S
C71          C72   1.396       .  A
C71          C76   1.415       .  A
C72          H91   1.086       .  S
C72          C73   1.394       .  A
C73        C1842   1.483       .  S
C73          C74   1.417       .  A
C74          C75   1.424       .  A
C74          C81   1.405       .  A
C75          C76   1.423       .  A
C75          C80   1.423       .  A
C76          C77   1.405       .  A
C77          H87   1.083       .  S
C77          C78   1.395       .  A
C78          H88   1.082       .  S
C78          C79   1.407       .  A
C79          C80   1.423       .  A
C79          C86   1.417       .  A
C80          C83   1.422       .  A
C81          H89   1.083       .  S
C81          C82   1.397       .  A
C82          H90   1.083       .  S
C82          C83   1.408       .  A
C83          C84   1.418       .  A
C84        C1821   1.487       .  S
C84          C85   1.401       .  A
C85          H92   1.085       .  S
C85          C86   1.400       .  A
C86        C1794   1.487       .  S
O93         Mg95   2.165       .  S
O93        Mg101   2.148       .  S
O93         C128   1.237       .  S
C94         O107   1.235       .  S
C94         O131   1.269       .  A
C94         H133   1.081       .  S
Mg95        O124   2.161       .  S
Mg95        O139   2.329       .  S
Mg95        O135   2.274       .  S
Mg95        O106   2.298       .  S
O96        Mg138   2.160       .  S
O96        Mg121   2.144       .  S
O96         C117   1.236       .  S
O97         C128   1.273       .  A
O97        Mg121   2.312       .  S
C98         O100   1.276       .  A
C98         O112   1.272       .  A
C98        C1773   1.486       .  S
O99         C127   1.271       .  A
O99        Mg101   2.302       .  S
O100       Mg132   2.302       .  S
Mg101       O107   2.159       .  S
Mg101       O115   2.278       .  S
Mg101       O103   2.264       .  S
C102        O140   1.272       .  A
C102        O108   1.278       .  A
C102       C1701   1.486       .  S
O103        C110   1.271       .  A
H104        C117   1.081       .  S
C105        O119   1.236       .  S
C105        O120   1.272       .  A
C105        H130   1.081       .  S
O106        C129   1.269       .  A
O107       Mg121   2.170       .  S
O108       Mg138   2.333       .  S
C109        O122   1.276       .  A
C109        O114   1.281       .  A
C109       C1722   1.495       .  S
C110        O137   1.275       .  A
C110       C1749   1.485       .  S
Mg111       O118   2.161       .  S
Mg111       O119   2.152       .  S
Mg111       O112   2.267       .  S
Mg111       O113   2.296       .  S
Mg111       O140   2.271       .  S
O113        C117   1.270       .  A
O114       Mg121   2.340       .  S
O115        C134   1.272       .  A
O116        C136   1.282       .  A
O116       Mg132   2.347       .  S
O118       Mg132   2.172       .  S
O118        C129   1.234       .  S
O119       Mg138   2.166       .  S
O120       Mg132   2.309       .  S
Mg121       O137   2.298       .  S
O122       Mg138   2.288       .  S
H123        C128   1.081       .  S
O124       Mg132   2.152       .  S
O124        C127   1.236       .  S
H125        C127   1.081       .  S
H126        C129   1.081       .  S
O131       Mg138   2.298       .  S
C134        O139   1.276       .  A
C134       C1677   1.485   1_565  S
O135        C136   1.275       .  A
C136       C1914   1.496       .  S
O141       Mg143   2.154       .  S
O141       Mg149   2.145       .  S
O141        C176   1.235       .  S
C142        O155   1.236       .  S
C142        O179   1.271       .  A
C142        H181   1.081       .  S
Mg143       O172   2.157       .  S
Mg143       O187   2.321       .  S
Mg143       O183   2.269       .  S
Mg143       O154   2.294       .  S
O144       Mg186   2.154       .  S
O144       Mg169   2.165       .  S
O144        C165   1.236       .  S
O145        C176   1.270       .  A
O145       Mg169   2.301       .  S
C146        O148   1.274       .  A
C146        O160   1.275       .  A
C146       C1845   1.491       .  S
O147        C175   1.271       .  A
O147       Mg149   2.303       .  S
O148       Mg180   2.287       .  S
Mg149       O155   2.158       .  S
Mg149       O163   2.273       .  S
Mg149       O151   2.295       .  S
C150        O188   1.270       .  A
C150        O156   1.278       .  A
C150       C1554   1.483       .  S
O151        C158   1.275       .  A
H152        C165   1.081       .  S
C153        O167   1.235       .  S
C153        O168   1.269       .  A
C153        H178   1.081       .  S
O154        C177   1.270       .  A
O155       Mg169   2.168       .  S
O156       Mg186   2.330       .  S
C157        O170   1.273       .  A
C157        O162   1.279       .  A
C157       C1602   1.489       .  S
C158        O185   1.276       .  A
C158       C1629   1.490       .  S
Mg159       O166   2.132       .  S
Mg159       O167   2.152       .  S
Mg159       O160   2.307       .  S
Mg159       O161   2.306       .  S
Mg159       O188   2.248       .  S
O161        C165   1.271       .  A
O162       Mg169   2.327       .  S
O163        C182   1.272       .  A
O164        C184   1.274       .  A
O164       Mg180   2.281       .  S
O166       Mg180   2.157       .  S
O166        C177   1.236       .  S
O167       Mg186   2.146       .  S
O168       Mg180   2.295       .  S
Mg169       O185   2.299       .  S
O170       Mg186   2.263       .  S
H171        C176   1.081       .  S
O172       Mg180   2.151       .  S
O172        C175   1.236       .  S
H173        C175   1.081       .  S
H174        C177   1.081       .  S
O179       Mg186   2.306       .  S
C182        O187   1.275       .  A
C182       C1581   1.477       .  S
O183        C184   1.273       .  A
C184       C1653   1.481       .  S
C189       C1770   1.478       .  S
C189        C190   1.397       .  A
C189        C194   1.416       .  A
C190        H209   1.086       .  S
C190        C191   1.395       .  A
C191       C1650   1.475       .  S
C191        C192   1.411       .  A
C192        C193   1.420       .  A
C192        C199   1.405       .  A
C193        C194   1.421       .  A
C193        C198   1.420       .  A
C194        C195   1.406       .  A
C195        H205   1.083       .  S
C195        C196   1.398       .  A
C196        H206   1.083       .  S
C196        C197   1.407       .  A
C197        C198   1.422       .  A
C197        C204   1.418       .  A
C198        C201   1.421       .  A
C199        H207   1.083       .  S
C199        C200   1.392       .  A
C200        H208   1.083       .  S
C200        C201   1.405       .  A
C201        C202   1.411       .  A
C202       C1533   1.477       .  S
C202        C203   1.395       .  A
C203        H210   1.086       .  S
C203        C204   1.397       .  A
C204       C1509   1.483       .  S
O211       Mg213   2.159   1_554  S
O211       Mg219   2.157   1_545  S
O211        C246   1.235       .  S
C212        O225   1.234   1_565  S
C212        O249   1.268       .  A
C212        H251   1.081       .  S
Mg213       O242   2.156   1_545  S
Mg213       O257   2.291   1_545  S
Mg213       O253   2.266   1_545  S
Mg213       O224   2.296       .  S
O214       Mg256   2.162   1_545  S
O214       Mg239   2.149       .  S
O214        C235   1.236       .  S
O215        C246   1.270       .  A
O215       Mg239   2.303       .  S
C216        O218   1.275       .  A
C216        O230   1.277       .  A
C216       C1485   1.489       .  S
O217        C245   1.271   1_554  A
O217       Mg219   2.307       .  S
O218       Mg250   2.286       .  S
Mg219       O225   2.150   1_565  S
Mg219       O233   2.275       .  S
Mg219       O221   2.302   1_565  S
C220        O258   1.274       .  A
C220        O226   1.274   1_556  A
C220       C1410   1.480       .  S
O221        C228   1.276       .  A
H222        C235   1.081       .  S
C223        O237   1.234       .  S
C223        O238   1.268       .  A
C223        H248   1.081   1_556  S
O224        C247   1.269       .  A
O225       Mg239   2.168       .  S
O226       Mg256   2.286   1_545  S
C227        O240   1.273       .  A
C227        O232   1.278       .  A
C227       C1818   1.492       .  S
C228        O255   1.274       .  A
C228       C1890   1.483       .  S
Mg229       O236   2.153       .  S
Mg229       O237   2.166   1_545  S
Mg229       O230   2.305   1_545  S
Mg229       O231   2.297       .  S
Mg229       O258   2.285       .  S
O231        C235   1.270   1_556  A
O232       Mg239   2.327       .  S
O233        C252   1.272       .  A
O234        C254   1.278       .  A
O234       Mg250   2.325       .  S
O236       Mg250   2.171   1_545  S
O236        C247   1.235       .  S
O237       Mg256   2.152   1_556  S
O238       Mg250   2.296       .  S
Mg239       O255   2.269       .  S
O240       Mg256   2.271   1_545  S
H241        C246   1.081   1_556  S
O242       Mg250   2.158       .  S
O242        C245   1.236       .  S
H243        C245   1.081       .  S
H244        C247   1.081       .  S
O249       Mg256   2.293       .  S
C252        O257   1.273   1_554  A
C252       C1434   1.480       .  S
O253        C254   1.272       .  A
C254       C1461   1.492       .  S
O259       Mg261   2.152   1_556  S
O259       Mg267   2.150       .  S
O259        C294   1.236       .  S
C260        O273   1.235       .  S
C260        O297   1.269       .  A
C260        H299   1.081       .  S
Mg261       O290   2.153       .  S
Mg261       O305   2.333       .  S
Mg261       O301   2.270       .  S
Mg261       O272   2.305       .  S
O262       Mg304   2.160       .  S
O262       Mg287   2.156       .  S
O262        C283   1.236       .  S
O263        C294   1.271       .  A
O263       Mg287   2.304       .  S
C264        O266   1.273       .  A
C264        O278   1.274       .  A
C264       C1866   1.487       .  S
O265        C293   1.269   1_556  A
O265       Mg267   2.298       .  S
O266       Mg298   2.279       .  S
Mg267       O273   2.138       .  S
Mg267       O281   2.246       .  S
Mg267       O269   2.279       .  S
C268        O306   1.272       .  A
C268        O274   1.276   1_554  A
C268       C1314   1.482       .  S
O269        C276   1.272       .  A
H270        C283   1.081       .  S
C271        O285   1.235       .  S
C271        O286   1.270       .  A
C271        H296   1.081   1_554  S
O272        C295   1.271       .  A
O273       Mg287   2.157       .  S
O274       Mg304   2.320       .  S
C275        O288   1.273       .  A
C275        O280   1.276       .  A
C275       C1386   1.483       .  S
C276        O303   1.275       .  A
C276       C1362   1.489       .  S
Mg277       O284   2.156       .  S
Mg277       O285   2.145       .  S
Mg277       O278   2.293       .  S
Mg277       O279   2.305       .  S
Mg277       O306   2.275       .  S
O279        C283   1.271   1_554  A
O280       Mg287   2.302       .  S
O281        C300   1.269       .  A
O282        C302   1.277       .  A
O282       Mg298   2.309       .  S
O284       Mg298   2.163       .  S
O284        C295   1.236       .  S
O285       Mg304   2.146   1_554  S
O286       Mg298   2.299       .  S
Mg287       O303   2.298       .  S
O288       Mg304   2.261       .  S
H289        C294   1.081   1_554  S
O290       Mg298   2.149       .  S
O290        C293   1.235       .  S
H291        C293   1.081       .  S
H292        C295   1.081       .  S
O297       Mg304   2.295       .  S
C300        O305   1.278   1_556  A
C300       C1338   1.478       .  S
O301        C302   1.274       .  A
C302       C1530   1.486       .  S
O307       Mg309   2.154   1_556  S
O307       Mg315   2.160   1_455  S
O307        C342   1.234       .  S
C308        O321   1.234       .  S
C308        O345   1.268       .  A
C308        H347   1.081       .  S
Mg309       O338   2.166   1_455  S
Mg309       O353   2.313   1_455  S
Mg309       O349   2.261   1_455  S
Mg309       O320   2.293       .  S
O310       Mg352   2.166   1_455  S
O310       Mg335   2.167       .  S
O310        C331   1.237       .  S
O311        C342   1.269       .  A
O311       Mg335   2.298       .  S
C312        O314   1.278       .  A
C312        O326   1.277       .  A
C312       C1506   1.492       .  S
O313        C341   1.271   1_556  A
O313       Mg315   2.302       .  S
O314       Mg346   2.303       .  S
Mg315       O321   2.130       .  S
Mg315       O329   2.251       .  S
Mg315       O317   2.303   1_655  S
C316        O354   1.272       .  A
C316        O322   1.274   1_554  A
C316       C1245   1.480       .  S
O317        C324   1.276       .  A
H318        C331   1.081       .  S
C319        O333   1.235       .  S
C319        O334   1.269       .  A
C319        H344   1.081       .  S
O320        C343   1.269       .  A
O321       Mg335   2.164   1_655  S
O322       Mg352   2.287   1_455  S
C323        O336   1.273       .  A
C323        O328   1.277       .  A
C323       C1266   1.487       .  S
C324        O351   1.277       .  A
C324       C1290   1.496       .  S
Mg325       O332   2.144       .  S
Mg325       O333   2.161   1_455  S
Mg325       O326   2.309   1_455  S
Mg325       O327   2.306       .  S
Mg325       O354   2.281       .  S
O327        C331   1.272   1_554  A
O328       Mg335   2.315       .  S
O329        C348   1.270       .  A
O330        C350   1.280       .  A
O330       Mg346   2.337       .  S
O332       Mg346   2.168   1_455  S
O332        C343   1.235       .  S
O333       Mg352   2.154   1_554  S
O334       Mg346   2.300       .  S
Mg335       O351   2.311       .  S
O336       Mg352   2.265   1_455  S
H337        C342   1.081   1_554  S
O338       Mg346   2.166       .  S
O338        C341   1.237       .  S
H339        C341   1.081       .  S
H340        C343   1.081       .  S
O345       Mg352   2.288       .  S
C348        O353   1.277   1_556  A
C348       C1221   1.484       .  S
O349        C350   1.274       .  A
C350       C1797   1.491       .  S
O355       Mg357   2.144       .  S
O355       Mg363   2.168       .  S
O355        C390   1.233       .  S
C356        O369   1.236       .  S
C356        O393   1.270       .  A
C356        H395   1.081       .  S
Mg357       O386   2.152       .  S
Mg357       O401   2.256       .  S
Mg357       O397   2.265       .  S
Mg357       O368   2.290       .  S
O358       Mg400   2.153       .  S
O358       Mg383   2.165       .  S
O358        C379   1.237       .  S
O359        C390   1.267       .  A
O359       Mg383   2.292       .  S
C360        O362   1.271       .  A
C360        O374   1.278       .  A
C360       C1194   1.485       .  S
O361        C389   1.270       .  A
O361       Mg363   2.297       .  S
O362       Mg394   2.254       .  S
Mg363       O369   2.146       .  S
Mg363       O377   2.287       .  S
Mg363       O365   2.333       .  S
C364        O402   1.272       .  A
C364        O370   1.273       .  A
C364       C1074   1.474       .  S
O365        C372   1.280       .  A
H366        C379   1.081       .  S
C367        O381   1.234       .  S
C367        O382   1.269       .  A
C367        H392   1.081       .  S
O368        C391   1.269       .  A
O369       Mg383   2.164       .  S
O370       Mg400   2.311       .  S
C371        O384   1.271       .  A
C371        O376   1.275       .  A
C371       C1146   1.486       .  S
C372        O399   1.275       .  A
C372       C1125   1.493       .  S
Mg373       O380   2.135       .  S
Mg373       O381   2.143       .  S
Mg373       O374   2.321       .  S
Mg373       O375   2.317       .  S
Mg373       O402   2.261       .  S
O375        C379   1.273       .  A
O376       Mg383   2.306       .  S
O377        C396   1.275       .  A
O378        C398   1.274       .  A
O378       Mg394   2.303       .  S
O380       Mg394   2.167       .  S
O380        C391   1.236       .  S
O381       Mg400   2.157       .  S
O382       Mg394   2.300       .  S
Mg383       O399   2.278       .  S
O384       Mg400   2.259       .  S
H385        C390   1.081       .  S
O386       Mg394   2.140       .  S
O386        C389   1.236       .  S
H387        C389   1.081       .  S
H388        C391   1.081       .  S
O393       Mg400   2.297       .  S
C396        O401   1.270       .  A
C396       C1098   1.469       .  S
O397        C398   1.272       .  A
C398       C1173   1.487       .  S
C403       C1293   1.486       .  S
C403        C404   1.398       .  A
C403        C408   1.420       .  A
C404        H423   1.086       .  S
C404        C405   1.396       .  A
C405       C1389   1.475       .  S
C405        C406   1.410       .  A
C406        C407   1.420       .  A
C406        C413   1.406       .  A
C407        C408   1.424       .  A
C407        C412   1.421       .  A
C408        C409   1.406       .  A
C409        H419   1.083       .  S
C409        C410   1.400       .  A
C410        H420   1.083       .  S
C410        C411   1.408       .  A
C411        C412   1.420       .  A
C411        C418   1.417       .  A
C412        C415   1.423       .  A
C413        H421   1.083       .  S
C413        C414   1.392       .  A
C414        H422   1.083       .  S
C414        C415   1.404       .  A
C415        C416   1.413       .  A
C416       C1149   1.480       .  S
C416        C417   1.395       .  A
C417        H424   1.086       .  S
C417        C418   1.398       .  A
C418       C1050   1.479       .  S
C425       C1269   1.483       .  S
C425        C426   1.399       .  A
C425        C430   1.415       .  A
C426        H445   1.085       .  S
C426        C427   1.400       .  A
C427       C1458   1.484       .  S
C427        C428   1.418       .  A
C428        C429   1.422       .  A
C428        C435   1.408       .  A
C429        C430   1.422       .  A
C429        C434   1.423       .  A
C430        C431   1.406       .  A
C431        H441   1.083       .  S
C431        C432   1.394       .  A
C432        H442   1.083       .  S
C432        C433   1.405       .  A
C433        C434   1.422       .  A
C433        C440   1.413       .  A
C434        C437   1.423       .  A
C435        H443   1.083       .  S
C435        C436   1.399       .  A
C436        H444   1.083       .  S
C436        C437   1.405       .  A
C437        C438   1.418       .  A
C438       C1122   1.483       .  S
C438        C439   1.397       .  A
C439        H446   1.086       .  S
C439        C440   1.395       .  A
C440       C1026   1.480       .  S
O447       Mg449   2.152       .  S
O447       Mg455   2.166       .  S
O447        C482   1.233       .  S
C448        O461   1.235       .  S
C448        O485   1.269       .  A
C448        H487   1.081       .  S
Mg449       O478   2.165       .  S
Mg449       O493   2.259       .  S
Mg449       O489   2.261       .  S
Mg449       O460   2.283       .  S
O450       Mg492   2.162       .  S
O450       Mg475   2.154       .  S
O450        C471   1.237       .  S
O451        C482   1.268       .  A
O451       Mg475   2.297       .  S
C452        O454   1.274       .  A
C452        O466   1.278       .  A
C452        C981   1.490       .  S
O453        C481   1.271       .  A
O453       Mg455   2.298       .  S
O454       Mg486   2.275       .  S
Mg455       O461   2.151       .  S
Mg455       O469   2.280       .  S
Mg455       O457   2.304       .  S
C456        O494   1.271       .  A
C456        O462   1.272       .  A
C456        C906   1.474   1_545  S
O457        C464   1.277       .  A
H458        C471   1.081       .  S
C459        O473   1.235       .  S
C459        O474   1.270       .  A
C459        H484   1.081       .  S
O460        C483   1.266       .  A
O461       Mg475   2.168       .  S
O462       Mg492   2.279       .  S
C463        O476   1.273       .  A
C463        O468   1.279       .  A
C463        C957   1.493       .  S
C464        O491   1.276       .  A
C464       C1053   1.488       .  S
Mg465       O472   2.128       .  S
Mg465       O473   2.167       .  S
Mg465       O466   2.319       .  S
Mg465       O467   2.302       .  S
Mg465       O494   2.253       .  S
O467        C471   1.271       .  A
O468       Mg475   2.333       .  S
O469        C488   1.273       .  A
O470        C490   1.278       .  A
O470       Mg486   2.324       .  S
O472       Mg486   2.153       .  S
O472        C483   1.233       .  S
O473       Mg492   2.164       .  S
O474       Mg486   2.304       .  S
Mg475       O491   2.286       .  S
O476       Mg492   2.268       .  S
H477        C482   1.081       .  S
O478       Mg486   2.147       .  S
O478        C481   1.237       .  S
H479        C481   1.081       .  S
H480        C483   1.081       .  S
O485       Mg492   2.295       .  S
C488        O493   1.270       .  A
C488        C930   1.470       .  S
O489        C490   1.272       .  A
C490       C1002   1.490       .  S
O495       Mg497   2.141       .  S
O495       Mg503   2.166       .  S
O495        C530   1.235       .  S
C496        O509   1.234       .  S
C496        O533   1.268       .  A
C496        H535   1.081       .  S
Mg497       O526   2.166       .  S
Mg497       O541   2.316       .  S
Mg497       O537   2.258       .  S
Mg497       O508   2.299       .  S
O498       Mg540   2.157       .  S
O498       Mg523   2.142       .  S
O498        C519   1.234       .  S
O499        C530   1.269       .  A
O499       Mg523   2.294       .  S
C500        O502   1.276       .  A
C500        O514   1.275       .  A
C500       C1029   1.489       .  S
O501        C529   1.270       .  A
O501       Mg503   2.301       .  S
O502       Mg534   2.293       .  S
Mg503       O509   2.144       .  S
Mg503       O517   2.272       .  S
Mg503       O505   2.279       .  S
C504        O542   1.273       .  A
C504        O510   1.276       .  A
C504        C786   1.477       .  S
O505        C512   1.273       .  A
H506        C519   1.081       .  S
C507        O521   1.236       .  S
C507        O522   1.271       .  A
C507        H532   1.081       .  S
O508        C531   1.268       .  A
O509       Mg523   2.166       .  S
O510       Mg540   2.296       .  S
C511        O524   1.277       .  A
C511        O516   1.276       .  A
C511        C882   1.492       .  S
C512        O539   1.273       .  A
C512        C861   1.482       .  S
Mg513       O520   2.158       .  S
Mg513       O521   2.175       .  S
Mg513       O514   2.292       .  S
Mg513       O515   2.291       .  S
Mg513       O542   2.278       .  S
O515        C519   1.268       .  A
O516       Mg523   2.300       .  S
O517        C536   1.271       .  A
O518        C538   1.279       .  A
O518       Mg534   2.334       .  S
O520       Mg534   2.164       .  S
O520        C531   1.233       .  S
O521       Mg540   2.163       .  S
O522       Mg534   2.305       .  S
Mg523       O539   2.274       .  S
O524       Mg540   2.298       .  S
H525        C530   1.081       .  S
O526       Mg534   2.167       .  S
O526        C529   1.236       .  S
H527        C529   1.081       .  S
H528        C531   1.081       .  S
O533       Mg540   2.295       .  S
C536        O541   1.277       .  A
C536        C813   1.484       .  S
O537        C538   1.273       .  A
C538        C837   1.491       .  S
C543       C1482   1.484       .  S
C543        C544   1.395       .  A
C543        C548   1.417       .  A
C544        H563   1.086       .  S
C544        C545   1.394       .  A
C545       C1365   1.480       .  S
C545        C546   1.415       .  A
C546        C547   1.422       .  A
C546        C553   1.404       .  A
C547        C548   1.423       .  A
C547        C552   1.424       .  A
C548        C549   1.404       .  A
C549        H559   1.083       .  S
C549        C550   1.396       .  A
C550        H560   1.082       .  S
C550        C551   1.408       .  A
C551        C552   1.422       .  A
C551        C558   1.419       .  A
C552        C555   1.421       .  A
C553        H561   1.083       .  S
C553        C554   1.396       .  A
C554        H562   1.083       .  S
C554        C555   1.407       .  A
C555        C556   1.416       .  A
C556        C834   1.485       .  S
C556        C557   1.402       .  A
C557        H564   1.085       .  S
C557        C558   1.402       .  A
C558        C954   1.490       .  S
C565       C1725   1.489       .  S
C565        C566   1.401       .  A
C565        C570   1.420       .  A
C566        H585   1.085       .  S
C566        C567   1.399       .  A
C567       C1989   1.487       .  S
C567        C568   1.416       .  A
C568        C569   1.423   1_455  A
C568        C575   1.405   1_455  A
C569        C570   1.423   1_655  A
C569        C574   1.425       .  A
C570        C571   1.407   1_455  A
C571        H581   1.083   1_655  S
C571        C572   1.398       .  A
C572        H582   1.083       .  S
C572        C573   1.406       .  A
C573        C574   1.422       .  A
C573        C580   1.419       .  A
C574        C577   1.422       .  A
C575        H583   1.083       .  S
C575        C576   1.394       .  A
C576        H584   1.083       .  S
C576        C577   1.406       .  A
C577        C578   1.416       .  A
C578       C1005   1.484       .  S
C578        C579   1.399       .  A
C579        H586   1.085       .  S
C579        C580   1.400       .  A
C580        C885   1.486       .  S
C587       C1626   1.486       .  S
C587        C588   1.397       .  A
C587        C592   1.418       .  A
C588        H607   1.086       .  S
C588        C589   1.395       .  A
C589       C2010   1.478       .  S
C589        C590   1.412       .  A
C590        C591   1.421       .  A
C590        C597   1.405       .  A
C591        C592   1.422       .  A
C591        C596   1.421       .  A
C592        C593   1.406       .  A
C593        H603   1.083       .  S
C593        C594   1.397       .  A
C594        H604   1.082       .  S
C594        C595   1.407       .  A
C595        C596   1.422       .  A
C595        C602   1.418       .  A
C596        C599   1.421       .  A
C597        H605   1.083       .  S
C597        C598   1.394       .  A
C598        H606   1.083       .  S
C598        C599   1.405       .  A
C599        C600   1.414       .  A
C600       C1197   1.480       .  S
C600        C601   1.395       .  A
C601        H608   1.086       .  S
C601        C602   1.398       .  A
C602        C858   1.483       .  S
C609       C1746   1.478       .  S
C609        C610   1.395       .  A
C609        C614   1.413       .  A
C610        H629   1.086       .  S
C610        C611   1.398       .  A
C611       C1605   1.481       .  S
C611        C612   1.416       .  A
C612        C613   1.422       .  A
C612        C619   1.406       .  A
C613        C614   1.422       .  A
C613        C618   1.421   1_565  A
C614        C615   1.405       .  A
C615        H625   1.083       .  S
C615        C616   1.393       .  A
C616        H626   1.083   1_565  S
C616        C617   1.405   1_565  A
C617        C618   1.421       .  A
C617        C624   1.412       .  A
C618        C621   1.422       .  A
C619        H627   1.083       .  S
C619        C620   1.398   1_565  A
C620        H628   1.083       .  S
C620        C621   1.406       .  A
C621        C622   1.417       .  A
C622        C978   1.482       .  S
C622        C623   1.397       .  A
C623        H630   1.086       .  S
C623        C624   1.396       .  A
C624       C1170   1.478       .  S
O631       Mg633   2.149   1_655  S
O631       Mg639   2.170   1_554  S
O631        C666   1.235       .  S
C632        O645   1.235       .  S
C632        O669   1.269       .  A
C632        H671   1.081       .  S
Mg633       O662   2.153   1_554  S
Mg633       O677   2.284   1_554  S
Mg633       O673   2.259       .  S
Mg633       O644   2.297       .  S
O634       Mg676   2.151   1_554  S
O634       Mg659   2.157   1_554  S
O634        C655   1.236       .  S
O635        C666   1.269   1_565  A
O635       Mg659   2.296   1_554  S
C636        O638   1.271       .  A
C636        O650   1.272   1_545  A
C636       C1437   1.464       .  S
O637        C665   1.270       .  A
O637       Mg639   2.299   1_455  S
O638       Mg670   2.268       .  S
Mg639       O645   2.150   1_545  S
Mg639       O653   2.278       .  S
Mg639       O641   2.281       .  S
C640        O678   1.270       .  A
C640        O646   1.274   1_454  A
C640       C1242   1.479       .  S
O641        C648   1.273   1_545  A
H642        C655   1.081       .  S
C643        O657   1.236       .  S
C643        O658   1.271   1_565  A
C643        H668   1.081       .  S
O644        C667   1.268       .  A
O645       Mg659   2.171       .  S
O646       Mg676   2.297       .  S
C647        O660   1.271       .  A
C647        O652   1.278       .  A
C647       C1341   1.475       .  S
C648        O675   1.275       .  A
C648       C1413   1.476       .  S
Mg649       O656   2.145   1_565  S
Mg649       O657   2.161   1_554  S
Mg649       O650   2.291   1_554  S
Mg649       O651   2.298   1_455  S
Mg649       O678   2.267       .  S
O651        C655   1.270       .  A
O652       Mg659   2.331       .  S
O653        C672   1.272       .  A
O654        C674   1.276       .  A
O654       Mg670   2.329   1_554  S
O656       Mg670   2.146   1_554  S
O656        C667   1.234       .  S
O657       Mg676   2.145   1_455  S
O658       Mg670   2.308       .  S
Mg659       O675   2.289       .  S
O660       Mg676   2.252       .  S
H661        C666   1.081       .  S
O662       Mg670   2.154       .  S
O662        C665   1.235       .  S
H663        C665   1.081       .  S
H664        C667   1.081       .  S
O669       Mg676   2.300       .  S
C672        O677   1.273   1_655  A
C672       C1218   1.473       .  S
O673        C674   1.271       .  A
C674       C1317   1.478       .  S
O679       Mg681   2.153       .  S
O679       Mg687   2.172       .  S
O679        C714   1.235       .  S
C680        O693   1.236       .  S
C680        O717   1.271       .  A
C680        H719   1.081       .  S
Mg681       O710   2.155       .  S
Mg681       O725   2.260       .  S
Mg681       O721   2.264       .  S
Mg681       O692   2.301       .  S
O682       Mg724   2.141       .  S
O682       Mg707   2.157       .  S
O682        C703   1.237       .  S
O683        C714   1.270       .  A
O683       Mg707   2.301       .  S
C684        O686   1.273       .  A
C684        O698   1.280       .  A
C684       C1578   1.485       .  S
O685        C713   1.271       .  A
O685       Mg687   2.300       .  S
O686       Mg718   2.267       .  S
Mg687       O693   2.153       .  S
Mg687       O701   2.290       .  S
Mg687       O689   2.333       .  S
C688        O726   1.273       .  A
C688        O694   1.272       .  A
C688       C1941   1.471       .  S
O689        C696   1.278       .  A
H690        C703   1.081       .  S
C691        O705   1.236       .  S
C691        O706   1.272       .  A
C691        H716   1.081       .  S
O692        C715   1.270       .  A
O693       Mg707   2.147       .  S
O694       Mg724   2.293       .  S
C695        O708   1.273       .  A
C695        O700   1.276       .  A
C695       C1674   1.484       .  S
C696        O723   1.272       .  A
C696       C1557   1.473       .  S
Mg697       O704   2.159       .  S
Mg697       O705   2.152       .  S
Mg697       O698   2.338       .  S
Mg697       O699   2.316       .  S
Mg697       O726   2.288       .  S
O699        C703   1.273       .  A
O700       Mg707   2.329       .  S
O701        C720   1.273       .  A
O702        C722   1.278       .  A
O702       Mg718   2.347       .  S
O704       Mg718   2.151       .  S
O704        C715   1.235       .  S
O705       Mg724   2.177       .  S
O706       Mg718   2.315       .  S
Mg707       O723   2.261       .  S
O708       Mg724   2.288       .  S
H709        C714   1.081       .  S
O710       Mg718   2.153       .  S
O710        C713   1.237       .  S
H711        C713   1.081       .  S
H712        C715   1.081       .  S
O717       Mg724   2.305       .  S
C720        O725   1.269       .  A
C720       C1962   1.468       .  S
O721        C722   1.270       .  A
C722       C1698   1.481       .  S
O727       Mg729   2.131       .  S
O727       Mg735   2.164       .  S
O727        C762   1.233       .  S
C728        O741   1.237       .  S
C728        O765   1.270       .  A
C728        H767   1.081       .  S
Mg729       O758   2.174       .  S
Mg729       O773   2.273       .  S
Mg729       O769   2.257       .  S
Mg729       O740   2.286       .  S
O730       Mg772   2.160       .  S
O730       Mg755   2.146       .  S
O730        C751   1.234       .  S
O731        C762   1.266       .  A
O731       Mg755   2.282       .  S
C732        O734   1.272       .  A
C732        O746   1.278       .  A
C732        C810   1.485       .  S
O733        C761   1.268       .  A
O733       Mg735   2.292       .  S
O734       Mg766   2.272       .  S
Mg735       O741   2.135       .  S
Mg735       O749   2.271       .  S
Mg735       O737   2.316       .  S
C736        O774   1.272       .  A
C736        O742   1.276       .  A
C736       C1077   1.473       .  S
O737        C744   1.278       .  A
H738        C751   1.081       .  S
C739        O753   1.234       .  S
C739        O754   1.269       .  A
C739        H764   1.081       .  S
O740        C763   1.268       .  A
O741       Mg755   2.164       .  S
O742       Mg772   2.319       .  S
C743        O756   1.274       .  A
C743        O748   1.269       .  A
C743        C933   1.476       .  S
C744        O771   1.271       .  A
C744        C789   1.484       .  S
Mg745       O752   2.132       .  S
Mg745       O753   2.155       .  S
Mg745       O746   2.320       .  S
Mg745       O747   2.302       .  S
Mg745       O774   2.251       .  S
O747        C751   1.269       .  A
O748       Mg755   2.251       .  S
O749        C768   1.274       .  A
O750        C770   1.271       .  A
O750       Mg766   2.272       .  S
O752       Mg766   2.166       .  S
O752        C763   1.235       .  S
O753       Mg772   2.159       .  S
O754       Mg766   2.296       .  S
Mg755       O771   2.262       .  S
O756       Mg772   2.287       .  S
H757        C762   1.081       .  S
O758       Mg766   2.143       .  S
O758        C761   1.235       .  S
H759        C761   1.081       .  S
H760        C763   1.081       .  S
O765       Mg772   2.298       .  S
C768        O773   1.272       .  A
C768       C1101   1.472       .  S
O769        C770   1.270       .  A
C770        C909   1.466       .  S
C775        H791   1.083       .  S
C775        C776   1.404       .  A
C775        C780   1.406       .  A
C776        H792   1.083       .  S
C776        C777   1.405       .  A
C777        C787   1.411   1_455  A
C777        C778   1.413       .  A
C778        C784   1.410       .  A
C778        C779   1.413       .  A
C779        C781   1.411       .  A
C779        C780   1.411       .  A
C780        C788   1.409       .  A
C781        C790   1.400       .  A
C781        C782   1.402       .  A
C782        H793   1.084       .  S
C782        C783   1.396       .  A
C783        H794   1.084       .  S
C783        C784   1.402       .  A
C784        C785   1.398       .  A
C785        H795   1.085       .  S
C785        C786   1.405   1_455  A
C786        C787   1.407       .  A
C787        H796   1.084       .  S
C788        H797   1.084       .  S
C788        C789   1.411       .  A
C789        C790   1.406       .  A
C790        H798   1.084       .  S
C799        H815   1.083       .  S
C799        C800   1.404       .  A
C799        C804   1.406       .  A
C800        H816   1.083       .  S
C800        C801   1.406       .  A
C801        C811   1.412       .  A
C801        C802   1.412       .  A
C802        C808   1.411       .  A
C802        C803   1.415       .  A
C803        C805   1.411       .  A
C803        C804   1.413       .  A
C804        C812   1.412       .  A
C805        C814   1.401       .  A
C805        C806   1.403       .  A
C806        H817   1.084       .  S
C806        C807   1.397       .  A
C807        H818   1.084       .  S
C807        C808   1.403       .  A
C808        C809   1.401       .  A
C809        H819   1.085       .  S
C809        C810   1.406       .  A
C810        C811   1.410       .  A
C811        H820   1.084       .  S
C812        H821   1.084       .  S
C812        C813   1.410       .  A
C813        C814   1.406       .  A
C814        H822   1.085       .  S
C823        H839   1.084       .  S
C823        C824   1.403       .  A
C823        C828   1.405       .  A
C824        H840   1.083       .  S
C824        C825   1.405       .  A
C825        C835   1.410       .  A
C825        C826   1.413       .  A
C826        C832   1.412       .  A
C826        C827   1.415       .  A
C827        C829   1.411       .  A
C827        C828   1.412       .  A
C828        C836   1.409       .  A
C829        C838   1.402       .  A
C829        C830   1.404       .  A
C830        H841   1.084       .  S
C830        C831   1.398       .  A
C831        H842   1.084       .  S
C831        C832   1.403       .  A
C832        C833   1.402       .  A
C833        H843   1.085       .  S
C833        C834   1.403       .  A
C834        C835   1.406       .  A
C835        H844   1.084       .  S
C836        H845   1.084       .  S
C836        C837   1.411       .  A
C837        C838   1.410       .  A
C838        H846   1.084       .  S
C847        H863   1.084       .  S
C847        C848   1.399       .  A
C847        C852   1.403       .  A
C848        H864   1.083       .  S
C848        C849   1.404       .  A
C849        C859   1.402       .  A
C849        C850   1.411       .  A
C850        C856   1.413       .  A
C850        C851   1.412       .  A
C851        C853   1.410       .  A
C851        C852   1.413       .  A
C852        C860   1.405       .  A
C853        C862   1.400       .  A
C853        C854   1.404       .  A
C854        H865   1.084       .  S
C854        C855   1.398       .  A
C855        H866   1.084       .  S
C855        C856   1.403       .  A
C856        C857   1.403       .  A
C857        H867   1.084       .  S
C857        C858   1.404       .  A
C858        C859   1.406       .  A
C859        H868   1.084       .  S
C860        H869   1.084       .  S
C860        C861   1.407       .  A
C861        C862   1.409       .  A
C862        H870   1.084       .  S
C871        H887   1.084   1_655  S
C871        C872   1.401       .  A
C871        C876   1.404       .  A
C872        H888   1.083   1_655  S
C872        C873   1.404       .  A
C873        C883   1.409       .  A
C873        C874   1.413       .  A
C874        C880   1.410       .  A
C874        C875   1.416       .  A
C875        C877   1.413       .  A
C875        C876   1.412       .  A
C876        C884   1.406       .  A
C877        C886   1.407       .  A
C877        C878   1.404       .  A
C878        H889   1.083       .  S
C878        C879   1.400       .  A
C879        H890   1.084       .  S
C879        C880   1.405       .  A
C880        C881   1.404       .  A
C881        H891   1.084       .  S
C881        C882   1.412       .  A
C882        C883   1.409       .  A
C883        H892   1.084       .  S
C884        H893   1.084   1_655  S
C884        C885   1.405       .  A
C885        C886   1.405       .  A
C886        H894   1.084       .  S
C895        H911   1.083       .  S
C895        C896   1.399       .  A
C895        C900   1.403       .  A
C896        H912   1.084       .  S
C896        C897   1.404       .  A
C897        C907   1.401       .  A
C897        C898   1.410       .  A
C898        C904   1.412       .  A
C898        C899   1.409       .  A
C899        C901   1.410       .  A
C899        C900   1.414       .  A
C900        C908   1.404       .  A
C901        C910   1.396       .  A
C901        C902   1.402       .  A
C902        H913   1.084       .  S
C902        C903   1.396       .  A
C903        H914   1.084       .  S
C903        C904   1.402       .  A
C904        C905   1.399       .  A
C905        H915   1.084       .  S
C905        C906   1.404       .  A
C906        C907   1.408       .  A
C907        H916   1.084   1_565  S
C908        H917   1.084       .  S
C908        C909   1.403       .  A
C909        C910   1.403       .  A
C910        H918   1.085       .  S
C919        H935   1.084       .  S
C919        C920   1.398       .  A
C919        C924   1.404       .  A
C920        H936   1.084       .  S
C920        C921   1.402       .  A
C921        C931   1.405   1_455  A
C921        C922   1.415       .  A
C922        C928   1.408       .  A
C922        C923   1.410       .  A
C923        C925   1.415       .  A
C923        C924   1.408       .  A
C924        C932   1.397       .  A
C925        C934   1.405       .  A
C925        C926   1.402       .  A
C926        H937   1.084       .  S
C926        C927   1.398       .  A
C927        H938   1.084       .  S
C927        C928   1.404       .  A
C928        C929   1.398       .  A
C929        H939   1.085   1_455  S
C929        C930   1.407   1_455  A
C930        C931   1.402       .  A
C931        H940   1.084       .  S
C932        H941   1.085       .  S
C932        C933   1.409       .  A
C933        C934   1.404       .  A
C934        H942   1.084       .  S
C943        H959   1.084       .  S
C943        C944   1.402       .  A
C943        C948   1.405       .  A
C944        H960   1.083       .  S
C944        C945   1.404   1_545  A
C945        C955   1.408       .  A
C945        C946   1.412       .  A
C946        C952   1.412       .  A
C946        C947   1.416   1_565  A
C947        C949   1.411       .  A
C947        C948   1.411       .  A
C948        C956   1.408       .  A
C949        C958   1.407       .  A
C949        C950   1.405   1_545  A
C950        H961   1.083       .  S
C950        C951   1.400       .  A
C951        H962   1.084       .  S
C951        C952   1.403       .  A
C952        C953   1.406       .  A
C953        H963   1.084       .  S
C953        C954   1.406       .  A
C954        C955   1.407       .  A
C955        H964   1.084       .  S
C956        H965   1.084       .  S
C956        C957   1.411       .  A
C957        C958   1.411       .  A
C958        H966   1.084       .  S
C967        H983   1.083       .  S
C967        C968   1.399       .  A
C967        C972   1.404       .  A
C968        H984   1.084   1_545  S
C968        C969   1.403       .  A
C969        C979   1.403       .  A
C969        C970   1.412       .  A
C970        C976   1.413       .  A
C970        C971   1.414       .  A
C971        C973   1.411       .  A
C971        C972   1.411       .  A
C972        C980   1.404       .  A
C973        C982   1.407       .  A
C973        C974   1.405       .  A
C974        H985   1.084       .  S
C974        C975   1.401       .  A
C975        H986   1.083       .  S
C975        C976   1.404       .  A
C976        C977   1.408       .  A
C977        H987   1.084       .  S
C977        C978   1.405       .  A
C978        C979   1.404       .  A
C979        H988   1.085       .  S
C980        H989   1.084       .  S
C980        C981   1.409       .  A
C981        C982   1.411       .  A
C982        H990   1.084       .  S
C991       H1007   1.083       .  S
C991        C992   1.401       .  A
C991        C996   1.404       .  A
C992       H1008   1.084       .  S
C992        C993   1.404       .  A
C993       C1003   1.407       .  A
C993        C994   1.412       .  A
C994       C1000   1.411       .  A
C994        C995   1.415       .  A
C995        C997   1.413       .  A
C995        C996   1.412       .  A
C996       C1004   1.406       .  A
C997       C1006   1.404       .  A
C997        C998   1.403       .  A
C998       H1009   1.084   1_655  S
C998        C999   1.399       .  A
C999       H1010   1.084       .  S
C999       C1000   1.404       .  A
C1000      C1001   1.404       .  A
C1001      H1011   1.084       .  S
C1001      C1002   1.410       .  A
C1002      C1003   1.410       .  A
C1003      H1012   1.084       .  S
C1004      H1013   1.084       .  S
C1004      C1005   1.405       .  A
C1005      C1006   1.404       .  A
C1006      H1014   1.084       .  S
C1015      H1031   1.084       .  S
C1015      C1016   1.399       .  A
C1015      C1020   1.404   1_455  A
C1016      H1032   1.084       .  S
C1016      C1017   1.403       .  A
C1017      C1027   1.404       .  A
C1017      C1018   1.413       .  A
C1018      C1024   1.412       .  A
C1018      C1019   1.413   1_455  A
C1019      C1021   1.412       .  A
C1019      C1020   1.410       .  A
C1020      C1028   1.403       .  A
C1021      C1030   1.406       .  A
C1021      C1022   1.404       .  A
C1022      H1033   1.084       .  S
C1022      C1023   1.400       .  A
C1023      H1034   1.083       .  S
C1023      C1024   1.404   1_655  A
C1024      C1025   1.404       .  A
C1025      H1035   1.084       .  S
C1025      C1026   1.404       .  A
C1026      C1027   1.404       .  A
C1027      H1036   1.084       .  S
C1028      H1037   1.084       .  S
C1028      C1029   1.411       .  A
C1029      C1030   1.408       .  A
C1030      H1038   1.084       .  S
C1039      H1055   1.084       .  S
C1039      C1040   1.400       .  A
C1039      C1044   1.405       .  A
C1040      H1056   1.084       .  S
C1040      C1041   1.403       .  A
C1041      C1051   1.405       .  A
C1041      C1042   1.413       .  A
C1042      C1048   1.412       .  A
C1042      C1043   1.413       .  A
C1043      C1045   1.412   1_455  A
C1043      C1044   1.410       .  A
C1044      C1052   1.404   1_455  A
C1045      C1054   1.406       .  A
C1045      C1046   1.404       .  A
C1046      H1057   1.084       .  S
C1046      C1047   1.399   1_655  A
C1047      H1058   1.083       .  S
C1047      C1048   1.403       .  A
C1048      C1049   1.403       .  A
C1049      H1059   1.084       .  S
C1049      C1050   1.403       .  A
C1050      C1051   1.404       .  A
C1051      H1060   1.084       .  S
C1052      H1061   1.084       .  S
C1052      C1053   1.411       .  A
C1053      C1054   1.408       .  A
C1054      H1062   1.084       .  S
C1063      H1079   1.084       .  S
C1063      C1064   1.396       .  A
C1063      C1068   1.402       .  A
C1064      H1080   1.084       .  S
C1064      C1065   1.402       .  A
C1065      C1075   1.398       .  A
C1065      C1066   1.411       .  A
C1066      C1072   1.412       .  A
C1066      C1067   1.411       .  A
C1067      C1069   1.412       .  A
C1067      C1068   1.411       .  A
C1068      C1076   1.398       .  A
C1069      C1078   1.407       .  A
C1069      C1070   1.405       .  A
C1070      H1081   1.083       .  S
C1070      C1071   1.402       .  A
C1071      H1082   1.083       .  S
C1071      C1072   1.405       .  A
C1072      C1073   1.407       .  A
C1073      H1083   1.084       .  S
C1073      C1074   1.407       .  A
C1074      C1075   1.404       .  A
C1075      H1084   1.085       .  S
C1076      H1085   1.085       .  S
C1076      C1077   1.404       .  A
C1077      C1078   1.406       .  A
C1078      H1086   1.084       .  S
C1087      H1103   1.084       .  S
C1087      C1088   1.396       .  A
C1087      C1092   1.402       .  A
C1088      H1104   1.084       .  S
C1088      C1089   1.403       .  A
C1089      C1099   1.394       .  A
C1089      C1090   1.408       .  A
C1090      C1096   1.415       .  A
C1090      C1091   1.409       .  A
C1091      C1093   1.409       .  A
C1091      C1092   1.414       .  A
C1092      C1100   1.401       .  A
C1093      C1102   1.400       .  A
C1093      C1094   1.404       .  A
C1094      H1105   1.084       .  S
C1094      C1095   1.399       .  A
C1095      H1106   1.083       .  S
C1095      C1096   1.403       .  A
C1096      C1097   1.406       .  A
C1097      H1107   1.084   1_565  S
C1097      C1098   1.403   1_565  A
C1098      C1099   1.405   1_545  A
C1099      H1108   1.085       .  S
C1100      H1109   1.084       .  S
C1100      C1101   1.402       .  A
C1101      C1102   1.408       .  A
C1102      H1110   1.084       .  S
C1111      H1127   1.083       .  S
C1111      C1112   1.399       .  A
C1111      C1116   1.404       .  A
C1112      H1128   1.084       .  S
C1112      C1113   1.403       .  A
C1113      C1123   1.404       .  A
C1113      C1114   1.412       .  A
C1114      C1120   1.413       .  A
C1114      C1115   1.416       .  A
C1115      C1117   1.411   1_565  A
C1115      C1116   1.411       .  A
C1116      C1124   1.406   1_565  A
C1117      C1126   1.408       .  A
C1117      C1118   1.405       .  A
C1118      H1129   1.084       .  S
C1118      C1119   1.402       .  A
C1119      H1130   1.083       .  S
C1119      C1120   1.405   1_545  A
C1120      C1121   1.408       .  A
C1121      H1131   1.084       .  S
C1121      C1122   1.407       .  A
C1122      C1123   1.404       .  A
C1123      H1132   1.085       .  S
C1124      H1133   1.084       .  S
C1124      C1125   1.409       .  A
C1125      C1126   1.412       .  A
C1126      H1134   1.084       .  S
C1135      H1151   1.084       .  S
C1135      C1136   1.399       .  A
C1135      C1140   1.403       .  A
C1136      H1152   1.084       .  S
C1136      C1137   1.403       .  A
C1137      C1147   1.403       .  A
C1137      C1138   1.411       .  A
C1138      C1144   1.411       .  A
C1138      C1139   1.413       .  A
C1139      C1141   1.412       .  A
C1139      C1140   1.413       .  A
C1140      C1148   1.403       .  A
C1141      C1150   1.405       .  A
C1141      C1142   1.404       .  A
C1142      H1153   1.083       .  S
C1142      C1143   1.400       .  A
C1143      H1154   1.084       .  S
C1143      C1144   1.404       .  A
C1144      C1145   1.405       .  A
C1145      H1155   1.084       .  S
C1145      C1146   1.410       .  A
C1146      C1147   1.408       .  A
C1147      H1156   1.084       .  S
C1148      H1157   1.084       .  S
C1148      C1149   1.403       .  A
C1149      C1150   1.404       .  A
C1150      H1158   1.084       .  S
C1159      H1175   1.084   1_545  S
C1159      C1160   1.398   1_545  A
C1159      C1164   1.404       .  A
C1160      H1176   1.084       .  S
C1160      C1161   1.403   1_565  A
C1161      C1171   1.402       .  A
C1161      C1162   1.413       .  A
C1162      C1168   1.413       .  A
C1162      C1163   1.413       .  A
C1163      C1165   1.411       .  A
C1163      C1164   1.411       .  A
C1164      C1172   1.403       .  A
C1165      C1174   1.405       .  A
C1165      C1166   1.404       .  A
C1166      H1177   1.084       .  S
C1166      C1167   1.400       .  A
C1167      H1178   1.083       .  S
C1167      C1168   1.404       .  A
C1168      C1169   1.405       .  A
C1169      H1179   1.084       .  S
C1169      C1170   1.404       .  A
C1170      C1171   1.402       .  A
C1171      H1180   1.085   1_545  S
C1172      H1181   1.084       .  S
C1172      C1173   1.408       .  A
C1173      C1174   1.410       .  A
C1174      H1182   1.084       .  S
C1183      H1199   1.084       .  S
C1183      C1184   1.397       .  A
C1183      C1188   1.402       .  A
C1184      H1200   1.084       .  S
C1184      C1185   1.403       .  A
C1185      C1195   1.401       .  A
C1185      C1186   1.411       .  A
C1186      C1192   1.411       .  A
C1186      C1187   1.412       .  A
C1187      C1189   1.412       .  A
C1187      C1188   1.412       .  A
C1188      C1196   1.400       .  A
C1189      C1198   1.406       .  A
C1189      C1190   1.404       .  A
C1190      H1201   1.083       .  S
C1190      C1191   1.401       .  A
C1191      H1202   1.084       .  S
C1191      C1192   1.405       .  A
C1192      C1193   1.406       .  A
C1193      H1203   1.084       .  S
C1193      C1194   1.411       .  A
C1194      C1195   1.407       .  A
C1195      H1204   1.084       .  S
C1196      H1205   1.085       .  S
C1196      C1197   1.402       .  A
C1197      C1198   1.407       .  A
C1198      H1206   1.084       .  S
C1207      H1223   1.084       .  S
C1207      C1208   1.397       .  A
C1207      C1212   1.403       .  A
C1208      H1224   1.084   1_655  S
C1208      C1209   1.403       .  A
C1209      C1219   1.399   1_554  A
C1209      C1210   1.410   1_554  A
C1210      C1216   1.415       .  A
C1210      C1211   1.413       .  A
C1211      C1213   1.410       .  A
C1211      C1212   1.412   1_556  A
C1212      C1220   1.402       .  A
C1213      C1222   1.405       .  A
C1213      C1214   1.405       .  A
C1214      H1225   1.084       .  S
C1214      C1215   1.401       .  A
C1215      H1226   1.083       .  S
C1215      C1216   1.404       .  A
C1216      C1217   1.409       .  A
C1217      H1227   1.084       .  S
C1217      C1218   1.404       .  A
C1218      C1219   1.406       .  A
C1219      H1228   1.085   1_656  S
C1220      H1229   1.084       .  S
C1220      C1221   1.407   1_554  A
C1221      C1222   1.410       .  A
C1222      H1230   1.084       .  S
C1231      H1247   1.083       .  S
C1231      C1232   1.404       .  A
C1231      C1236   1.405       .  A
C1232      H1248   1.083       .  S
C1232      C1233   1.405       .  A
C1233      C1243   1.410       .  A
C1233      C1234   1.412       .  A
C1234      C1240   1.411   1_454  A
C1234      C1235   1.412       .  A
C1235      C1237   1.410   1_554  A
C1235      C1236   1.413       .  A
C1236      C1244   1.410       .  A
C1237      C1246   1.397       .  A
C1237      C1238   1.402   1_455  A
C1238      H1249   1.084       .  S
C1238      C1239   1.395       .  A
C1239      H1250   1.084       .  S
C1239      C1240   1.402       .  A
C1240      C1241   1.398       .  A
C1241      H1251   1.085       .  S
C1241      C1242   1.405   1_656  A
C1242      C1243   1.409       .  A
C1243      H1252   1.084       .  S
C1244      H1253   1.084       .  S
C1244      C1245   1.408       .  A
C1245      C1246   1.406   1_554  A
C1246      H1254   1.085   1_455  S
C1255      H1271   1.083       .  S
C1255      C1256   1.399       .  A
C1255      C1260   1.403       .  A
C1256      H1272   1.084       .  S
C1256      C1257   1.404       .  A
C1257      C1267   1.404       .  A
C1257      C1258   1.411       .  A
C1258      C1264   1.411       .  A
C1258      C1259   1.414       .  A
C1259      C1261   1.413       .  A
C1259      C1260   1.412       .  A
C1260      C1268   1.404       .  A
C1261      C1270   1.406       .  A
C1261      C1262   1.404       .  A
C1262      H1273   1.084       .  S
C1262      C1263   1.400       .  A
C1263      H1274   1.084       .  S
C1263      C1264   1.404       .  A
C1264      C1265   1.405       .  A
C1265      H1275   1.084       .  S
C1265      C1266   1.410       .  A
C1266      C1267   1.409       .  A
C1267      H1276   1.084       .  S
C1268      H1277   1.084       .  S
C1268      C1269   1.404       .  A
C1269      C1270   1.405       .  A
C1270      H1278   1.084       .  S
C1279      H1295   1.084       .  S
C1279      C1280   1.400       .  A
C1279      C1284   1.403       .  A
C1280      H1296   1.084       .  S
C1280      C1281   1.405       .  A
C1281      C1291   1.404       .  A
C1281      C1282   1.410       .  A
C1282      C1288   1.413       .  A
C1282      C1283   1.417       .  A
C1283      C1285   1.411       .  A
C1283      C1284   1.413       .  A
C1284      C1292   1.406       .  A
C1285      C1294   1.408       .  A
C1285      C1286   1.405       .  A
C1286      H1297   1.083       .  S
C1286      C1287   1.403       .  A
C1287      H1298   1.083       .  S
C1287      C1288   1.405       .  A
C1288      C1289   1.412       .  A
C1289      H1299   1.084       .  S
C1289      C1290   1.411       .  A
C1290      C1291   1.412       .  A
C1291      H1300   1.084       .  S
C1292      H1301   1.084       .  S
C1292      C1293   1.405       .  A
C1293      C1294   1.407       .  A
C1294      H1302   1.084       .  S
C1303      H1319   1.083       .  S
C1303      C1304   1.402       .  A
C1303      C1308   1.404       .  A
C1304      H1320   1.084       .  S
C1304      C1305   1.405       .  A
C1305      C1315   1.406       .  A
C1305      C1306   1.411       .  A
C1306      C1312   1.413       .  A
C1306      C1307   1.414       .  A
C1307      C1309   1.410       .  A
C1307      C1308   1.414       .  A
C1308      C1316   1.409       .  A
C1309      C1318   1.402       .  A
C1309      C1310   1.404   1_554  A
C1310      H1321   1.084       .  S
C1310      C1311   1.399       .  A
C1311      H1322   1.084       .  S
C1311      C1312   1.403   1_556  A
C1312      C1313   1.405       .  A
C1313      H1323   1.084   1_554  S
C1313      C1314   1.406       .  A
C1314      C1315   1.409       .  A
C1315      H1324   1.084       .  S
C1316      H1325   1.084       .  S
C1316      C1317   1.406       .  A
C1317      C1318   1.406       .  A
C1318      H1326   1.085   1_554  S
C1327      H1343   1.083       .  S
C1327      C1328   1.400       .  A
C1327      C1332   1.403       .  A
C1328      H1344   1.084       .  S
C1328      C1329   1.404       .  A
C1329      C1339   1.402       .  A
C1329      C1330   1.410       .  A
C1330      C1336   1.414       .  A
C1330      C1331   1.413       .  A
C1331      C1333   1.410       .  A
C1331      C1332   1.414       .  A
C1332      C1340   1.407       .  A
C1333      C1342   1.401       .  A
C1333      C1334   1.404   1_556  A
C1334      H1345   1.084       .  S
C1334      C1335   1.399       .  A
C1335      H1346   1.084       .  S
C1335      C1336   1.403   1_554  A
C1336      C1337   1.406       .  A
C1337      H1347   1.084   1_556  S
C1337      C1338   1.405       .  A
C1338      C1339   1.408       .  A
C1339      H1348   1.085       .  S
C1340      H1349   1.084       .  S
C1340      C1341   1.404       .  A
C1341      C1342   1.407       .  A
C1342      H1350   1.085       .  S
C1351      H1367   1.084       .  S
C1351      C1352   1.398       .  A
C1351      C1356   1.403       .  A
C1352      H1368   1.084       .  S
C1352      C1353   1.404       .  A
C1353      C1363   1.400       .  A
C1353      C1354   1.409       .  A
C1354      C1360   1.413       .  A
C1354      C1355   1.414       .  A
C1355      C1357   1.411       .  A
C1355      C1356   1.413       .  A
C1356      C1364   1.403       .  A
C1357      C1366   1.406       .  A
C1357      C1358   1.404       .  A
C1358      H1369   1.083       .  S
C1358      C1359   1.401       .  A
C1359      H1370   1.084       .  S
C1359      C1360   1.404       .  A
C1360      C1361   1.409       .  A
C1361      H1371   1.084       .  S
C1361      C1362   1.409       .  A
C1362      C1363   1.411       .  A
C1363      H1372   1.084       .  S
C1364      H1373   1.085       .  S
C1364      C1365   1.403       .  A
C1365      C1366   1.406       .  A
C1366      H1374   1.084       .  S
C1375      H1391   1.084       .  S
C1375      C1376   1.398       .  A
C1375      C1380   1.402       .  A
C1376      H1392   1.084       .  S
C1376      C1377   1.403       .  A
C1377      C1387   1.401       .  A
C1377      C1378   1.411       .  A
C1378      C1384   1.411       .  A
C1378      C1379   1.411       .  A
C1379      C1381   1.413       .  A
C1379      C1380   1.413       .  A
C1380      C1388   1.401       .  A
C1381      C1390   1.403       .  A
C1381      C1382   1.403       .  A
C1382      H1393   1.084       .  S
C1382      C1383   1.399       .  A
C1383      H1394   1.084       .  S
C1383      C1384   1.404       .  A
C1384      C1385   1.403       .  A
C1385      H1395   1.084       .  S
C1385      C1386   1.409       .  A
C1386      C1387   1.408       .  A
C1387      H1396   1.084       .  S
C1388      H1397   1.085       .  S
C1388      C1389   1.401       .  A
C1389      C1390   1.403       .  A
C1390      H1398   1.084       .  S
C1399      H1415   1.084       .  S
C1399      C1400   1.400       .  A
C1399      C1404   1.404       .  A
C1400      H1416   1.084       .  S
C1400      C1401   1.403       .  A
C1401      C1411   1.407       .  A
C1401      C1402   1.414       .  A
C1402      C1408   1.409   1_546  A
C1402      C1403   1.413       .  A
C1403      C1405   1.414   1_546  A
C1403      C1404   1.410       .  A
C1404      C1412   1.402       .  A
C1405      C1414   1.406       .  A
C1405      C1406   1.403       .  A
C1406      H1417   1.084       .  S
C1406      C1407   1.399       .  A
C1407      H1418   1.084       .  S
C1407      C1408   1.404       .  A
C1408      C1409   1.401       .  A
C1409      H1419   1.085       .  S
C1409      C1410   1.408   1_564  A
C1410      C1411   1.406       .  A
C1411      H1420   1.084       .  S
C1412      H1421   1.085       .  S
C1412      C1413   1.407   1_545  A
C1413      C1414   1.403   1_556  A
C1414      H1422   1.084       .  S
C1423      H1439   1.084       .  S
C1423      C1424   1.399       .  A
C1423      C1428   1.403       .  A
C1424      H1440   1.084       .  S
C1424      C1425   1.404       .  A
C1425      C1435   1.402       .  A
C1425      C1426   1.411   1_556  A
C1426      C1432   1.412   1_565  A
C1426      C1427   1.411   1_565  A
C1427      C1429   1.412       .  A
C1427      C1428   1.413   1_544  A
C1428      C1436   1.403       .  A
C1429      C1438   1.401       .  A
C1429      C1430   1.403       .  A
C1430      H1441   1.084       .  S
C1430      C1431   1.399       .  A
C1431      H1442   1.084       .  S
C1431      C1432   1.404       .  A
C1432      C1433   1.404       .  A
C1433      H1443   1.084       .  S
C1433      C1434   1.407   1_545  A
C1434      C1435   1.407   1_554  A
C1435      H1444   1.084       .  S
C1436      H1445   1.084       .  S
C1436      C1437   1.402   1_565  A
C1437      C1438   1.403   1_556  A
C1438      H1446   1.085       .  S
C1447      H1463   1.084       .  S
C1447      C1448   1.401       .  A
C1447      C1452   1.404       .  A
C1448      H1464   1.083       .  S
C1448      C1449   1.404       .  A
C1449      C1459   1.406       .  A
C1449      C1450   1.412       .  A
C1450      C1456   1.413       .  A
C1450      C1451   1.416       .  A
C1451      C1453   1.411       .  A
C1451      C1452   1.412       .  A
C1452      C1460   1.407       .  A
C1453      C1462   1.406       .  A
C1453      C1454   1.405       .  A
C1454      H1465   1.084       .  S
C1454      C1455   1.400       .  A
C1455      H1466   1.084       .  S
C1455      C1456   1.404       .  A
C1456      C1457   1.406       .  A
C1457      H1467   1.084       .  S
C1457      C1458   1.405       .  A
C1458      C1459   1.405       .  A
C1459      H1468   1.084       .  S
C1460      H1469   1.084       .  S
C1460      C1461   1.410       .  A
C1461      C1462   1.411       .  A
C1462      H1470   1.084       .  S
C1471      H1487   1.084       .  S
C1471      C1472   1.401       .  A
C1471      C1476   1.404       .  A
C1472      H1488   1.083       .  S
C1472      C1473   1.404       .  A
C1473      C1483   1.404       .  A
C1473      C1474   1.411       .  A
C1474      C1480   1.413       .  A
C1474      C1475   1.414       .  A
C1475      C1477   1.410       .  A
C1475      C1476   1.412       .  A
C1476      C1484   1.408       .  A
C1477      C1486   1.403       .  A
C1477      C1478   1.404       .  A
C1478      H1489   1.084       .  S
C1478      C1479   1.399       .  A
C1479      H1490   1.084       .  S
C1479      C1480   1.403       .  A
C1480      C1481   1.405       .  A
C1481      H1491   1.085       .  S
C1481      C1482   1.404       .  A
C1482      C1483   1.407       .  A
C1483      H1492   1.084       .  S
C1484      H1493   1.084       .  S
C1484      C1485   1.409       .  A
C1485      C1486   1.410       .  A
C1486      H1494   1.084       .  S
C1495      H1511   1.084       .  S
C1495      C1496   1.399       .  A
C1495      C1500   1.403       .  A
C1496      H1512   1.084       .  S
C1496      C1497   1.405       .  A
C1497      C1507   1.404       .  A
C1497      C1498   1.410       .  A
C1498      C1504   1.413       .  A
C1498      C1499   1.415       .  A
C1499      C1501   1.411       .  A
C1499      C1500   1.413       .  A
C1500      C1508   1.405       .  A
C1501      C1510   1.405       .  A
C1501      C1502   1.404       .  A
C1502      H1513   1.083       .  S
C1502      C1503   1.401       .  A
C1503      H1514   1.083       .  S
C1503      C1504   1.404       .  A
C1504      C1505   1.409       .  A
C1505      H1515   1.084       .  S
C1505      C1506   1.409       .  A
C1506      C1507   1.411       .  A
C1507      H1516   1.084       .  S
C1508      H1517   1.084       .  S
C1508      C1509   1.404       .  A
C1509      C1510   1.407       .  A
C1510      H1518   1.084       .  S
C1519      H1535   1.084       .  S
C1519      C1520   1.399       .  A
C1519      C1524   1.403       .  A
C1520      H1536   1.084       .  S
C1520      C1521   1.404       .  A
C1521      C1531   1.404       .  A
C1521      C1522   1.412       .  A
C1522      C1528   1.411       .  A
C1522      C1523   1.412       .  A
C1523      C1525   1.413       .  A
C1523      C1524   1.412       .  A
C1524      C1532   1.402       .  A
C1525      C1534   1.404       .  A
C1525      C1526   1.403       .  A
C1526      H1537   1.083       .  S
C1526      C1527   1.399       .  A
C1527      H1538   1.084       .  S
C1527      C1528   1.404       .  A
C1528      C1529   1.404       .  A
C1529      H1539   1.084       .  S
C1529      C1530   1.409       .  A
C1530      C1531   1.409       .  A
C1531      H1540   1.084       .  S
C1532      H1541   1.085       .  S
C1532      C1533   1.403       .  A
C1533      C1534   1.403       .  A
C1534      H1542   1.084       .  S
C1543      H1559   1.084       .  S
C1543      C1544   1.398       .  A
C1543      C1548   1.403       .  A
C1544      H1560   1.084       .  S
C1544      C1545   1.403       .  A
C1545      C1555   1.404   1_545  A
C1545      C1546   1.413       .  A
C1546      C1552   1.410       .  A
C1546      C1547   1.413       .  A
C1547      C1549   1.414       .  A
C1547      C1548   1.410       .  A
C1548      C1556   1.401       .  A
C1549      C1558   1.408       .  A
C1549      C1550   1.404       .  A
C1550      H1561   1.083       .  S
C1550      C1551   1.401       .  A
C1551      H1562   1.084       .  S
C1551      C1552   1.405       .  A
C1552      C1553   1.404       .  A
C1553      H1563   1.084       .  S
C1553      C1554   1.410   1_545  A
C1554      C1555   1.406       .  A
C1555      H1564   1.084       .  S
C1556      H1565   1.085       .  S
C1556      C1557   1.404       .  A
C1557      C1558   1.404       .  A
C1558      H1566   1.084       .  S
C1567      H1583   1.083       .  S
C1567      C1568   1.402       .  A
C1567      C1572   1.404       .  A
C1568      H1584   1.084       .  S
C1568      C1569   1.405       .  A
C1569      C1579   1.406       .  A
C1569      C1570   1.410       .  A
C1570      C1576   1.413       .  A
C1570      C1571   1.415       .  A
C1571      C1573   1.410       .  A
C1571      C1572   1.414       .  A
C1572      C1580   1.409       .  A
C1573      C1582   1.402       .  A
C1573      C1574   1.404       .  A
C1574      H1585   1.084       .  S
C1574      C1575   1.399       .  A
C1575      H1586   1.084       .  S
C1575      C1576   1.403       .  A
C1576      C1577   1.406       .  A
C1577      H1587   1.084       .  S
C1577      C1578   1.406       .  A
C1578      C1579   1.410       .  A
C1579      H1588   1.084       .  S
C1580      H1589   1.084       .  S
C1580      C1581   1.406       .  A
C1581      C1582   1.406       .  A
C1582      H1590   1.085       .  S
C1591      H1607   1.084       .  S
C1591      C1592   1.399   1_545  A
C1591      C1596   1.403   1_545  A
C1592      H1608   1.084   1_565  S
C1592      C1593   1.404       .  A
C1593      C1603   1.404       .  A
C1593      C1594   1.411       .  A
C1594      C1600   1.412       .  A
C1594      C1595   1.414       .  A
C1595      C1597   1.413       .  A
C1595      C1596   1.412       .  A
C1596      C1604   1.403       .  A
C1597      C1606   1.406       .  A
C1597      C1598   1.404       .  A
C1598      H1609   1.083       .  S
C1598      C1599   1.400       .  A
C1599      H1610   1.084       .  S
C1599      C1600   1.404       .  A
C1600      C1601   1.406       .  A
C1601      H1611   1.084       .  S
C1601      C1602   1.409       .  A
C1602      C1603   1.410       .  A
C1603      H1612   1.084       .  S
C1604      H1613   1.085   1_565  S
C1604      C1605   1.405       .  A
C1605      C1606   1.404       .  A
C1606      H1614   1.084       .  S
C1615      H1631   1.084       .  S
C1615      C1616   1.401       .  A
C1615      C1620   1.404       .  A
C1616      H1632   1.083       .  S
C1616      C1617   1.404       .  A
C1617      C1627   1.405       .  A
C1617      C1618   1.411       .  A
C1618      C1624   1.413       .  A
C1618      C1619   1.414       .  A
C1619      C1621   1.410       .  A
C1619      C1620   1.413       .  A
C1620      C1628   1.408       .  A
C1621      C1630   1.404       .  A
C1621      C1622   1.405       .  A
C1622      H1633   1.084       .  S
C1622      C1623   1.399       .  A
C1623      H1634   1.084       .  S
C1623      C1624   1.403       .  A
C1624      C1625   1.405       .  A
C1625      H1635   1.084       .  S
C1625      C1626   1.405       .  A
C1626      C1627   1.407       .  A
C1627      H1636   1.084       .  S
C1628      H1637   1.084       .  S
C1628      C1629   1.408       .  A
C1629      C1630   1.411       .  A
C1630      H1638   1.084       .  S
C1639      H1655   1.084       .  S
C1639      C1640   1.397       .  A
C1639      C1644   1.403       .  A
C1640      H1656   1.084       .  S
C1640      C1641   1.402       .  A
C1641      C1651   1.402       .  A
C1641      C1642   1.413       .  A
C1642      C1648   1.412       .  A
C1642      C1643   1.411       .  A
C1643      C1645   1.412       .  A
C1643      C1644   1.410       .  A
C1644      C1652   1.399       .  A
C1645      C1654   1.404       .  A
C1645      C1646   1.404       .  A
C1646      H1657   1.083       .  S
C1646      C1647   1.399       .  A
C1647      H1658   1.084       .  S
C1647      C1648   1.404       .  A
C1648      C1649   1.402       .  A
C1649      H1659   1.085       .  S
C1649      C1650   1.403       .  A
C1650      C1651   1.401       .  A
C1651      H1660   1.084       .  S
C1652      H1661   1.084       .  S
C1652      C1653   1.408       .  A
C1653      C1654   1.407       .  A
C1654      H1662   1.084       .  S
C1663      H1679   1.084       .  S
C1663      C1664   1.402       .  A
C1663      C1668   1.405       .  A
C1664      H1680   1.083       .  S
C1664      C1665   1.404       .  A
C1665      C1675   1.410       .  A
C1665      C1666   1.414       .  A
C1666      C1672   1.411       .  A
C1666      C1667   1.417       .  A
C1667      C1669   1.413       .  A
C1667      C1668   1.411       .  A
C1668      C1676   1.407       .  A
C1669      C1678   1.409       .  A
C1669      C1670   1.404       .  A
C1670      H1681   1.083       .  S
C1670      C1671   1.401       .  A
C1671      H1682   1.084       .  S
C1671      C1672   1.405       .  A
C1672      C1673   1.406       .  A
C1673      H1683   1.085       .  S
C1673      C1674   1.408       .  A
C1674      C1675   1.407       .  A
C1675      H1684   1.084       .  S
C1676      H1685   1.085   1_545  S
C1676      C1677   1.409       .  A
C1677      C1678   1.407       .  A
C1678      H1686   1.084       .  S
C1687      H1703   1.083       .  S
C1687      C1688   1.401       .  A
C1687      C1692   1.404       .  A
C1688      H1704   1.084       .  S
C1688      C1689   1.405       .  A
C1689      C1699   1.405       .  A
C1689      C1690   1.410       .  A
C1690      C1696   1.415       .  A
C1690      C1691   1.416       .  A
C1691      C1693   1.410       .  A
C1691      C1692   1.414       .  A
C1692      C1700   1.409   1_655  A
C1693      C1702   1.405       .  A
C1693      C1694   1.405       .  A
C1694      H1705   1.083       .  S
C1694      C1695   1.401       .  A
C1695      H1706   1.083       .  S
C1695      C1696   1.404       .  A
C1696      C1697   1.411       .  A
C1697      H1707   1.084       .  S
C1697      C1698   1.405       .  A
C1698      C1699   1.408       .  A
C1699      H1708   1.085       .  S
C1700      H1709   1.084       .  S
C1700      C1701   1.407       .  A
C1701      C1702   1.409   1_455  A
C1702      H1710   1.085   1_655  S
C1711      H1727   1.083       .  S
C1711      C1712   1.403   1_655  A
C1711      C1716   1.405   1_655  A
C1712      H1728   1.083   1_455  S
C1712      C1713   1.406       .  A
C1713      C1723   1.410       .  A
C1713      C1714   1.411       .  A
C1714      C1720   1.412       .  A
C1714      C1715   1.417       .  A
C1715      C1717   1.412       .  A
C1715      C1716   1.413       .  A
C1716      C1724   1.410       .  A
C1717      C1726   1.405       .  A
C1717      C1718   1.403       .  A
C1718      H1729   1.083       .  S
C1718      C1719   1.400       .  A
C1719      H1730   1.084       .  S
C1719      C1720   1.404       .  A
C1720      C1721   1.407       .  A
C1721      H1731   1.084       .  S
C1721      C1722   1.410       .  A
C1722      C1723   1.412       .  A
C1723      H1732   1.084       .  S
C1724      H1733   1.084   1_455  S
C1724      C1725   1.407       .  A
C1725      C1726   1.405       .  A
C1726      H1734   1.084       .  S
C1735      H1751   1.084       .  S
C1735      C1736   1.402       .  A
C1735      C1740   1.404       .  A
C1736      H1752   1.083       .  S
C1736      C1737   1.405       .  A
C1737      C1747   1.406       .  A
C1737      C1738   1.412       .  A
C1738      C1744   1.413       .  A
C1738      C1739   1.412       .  A
C1739      C1741   1.409       .  A
C1739      C1740   1.413       .  A
C1740      C1748   1.409       .  A
C1741      C1750   1.397       .  A
C1741      C1742   1.403       .  A
C1742      H1753   1.084       .  S
C1742      C1743   1.396       .  A
C1743      H1754   1.084   1_565  S
C1743      C1744   1.402       .  A
C1744      C1745   1.400       .  A
C1745      H1755   1.085       .  S
C1745      C1746   1.401       .  A
C1746      C1747   1.405       .  A
C1747      H1756   1.084       .  S
C1748      H1757   1.084       .  S
C1748      C1749   1.408       .  A
C1749      C1750   1.410       .  A
C1750      H1758   1.084       .  S
C1759      H1775   1.084       .  S
C1759      C1760   1.401       .  A
C1759      C1764   1.404       .  A
C1760      H1776   1.083       .  S
C1760      C1761   1.404   1_455  A
C1761      C1771   1.405       .  A
C1761      C1762   1.411       .  A
C1762      C1768   1.413       .  A
C1762      C1763   1.413   1_655  A
C1763      C1765   1.409       .  A
C1763      C1764   1.413       .  A
C1764      C1772   1.408       .  A
C1765      C1774   1.399       .  A
C1765      C1766   1.404   1_455  A
C1766      H1777   1.084       .  S
C1766      C1767   1.398       .  A
C1767      H1778   1.084       .  S
C1767      C1768   1.402       .  A
C1768      C1769   1.403       .  A
C1769      H1779   1.085       .  S
C1769      C1770   1.402       .  A
C1770      C1771   1.405       .  A
C1771      H1780   1.084       .  S
C1772      H1781   1.084       .  S
C1772      C1773   1.408       .  A
C1773      C1774   1.411       .  A
C1774      H1782   1.084       .  S
C1783      H1799   1.084       .  S
C1783      C1784   1.400       .  A
C1783      C1788   1.404       .  A
C1784      H1800   1.084       .  S
C1784      C1785   1.404       .  A
C1785      C1795   1.407       .  A
C1785      C1786   1.413       .  A
C1786      C1792   1.412       .  A
C1786      C1787   1.415       .  A
C1787      C1789   1.412       .  A
C1787      C1788   1.410       .  A
C1788      C1796   1.404       .  A
C1789      C1798   1.408       .  A
C1789      C1790   1.404       .  A
C1790      H1801   1.084       .  S
C1790      C1791   1.401       .  A
C1791      H1802   1.083       .  S
C1791      C1792   1.404       .  A
C1792      C1793   1.406       .  A
C1793      H1803   1.084       .  S
C1793      C1794   1.405       .  A
C1794      C1795   1.405       .  A
C1795      H1804   1.084       .  S
C1796      H1805   1.084       .  S
C1796      C1797   1.411       .  A
C1797      C1798   1.410       .  A
C1798      H1806   1.084       .  S
C1807      H1823   1.083       .  S
C1807      C1808   1.401       .  A
C1807      C1812   1.404       .  A
C1808      H1824   1.084       .  S
C1808      C1809   1.405       .  A
C1809      C1819   1.408       .  A
C1809      C1810   1.412       .  A
C1810      C1816   1.411       .  A
C1810      C1811   1.416       .  A
C1811      C1813   1.413       .  A
C1811      C1812   1.412       .  A
C1812      C1820   1.406       .  A
C1813      C1822   1.407       .  A
C1813      C1814   1.404       .  A
C1814      H1825   1.084       .  S
C1814      C1815   1.401       .  A
C1815      H1826   1.083       .  S
C1815      C1816   1.404       .  A
C1816      C1817   1.406       .  A
C1817      H1827   1.084       .  S
C1817      C1818   1.410       .  A
C1818      C1819   1.410       .  A
C1819      H1828   1.084       .  S
C1820      H1829   1.084       .  S
C1820      C1821   1.406       .  A
C1821      C1822   1.405       .  A
C1822      H1830   1.084       .  S
C1831      H1847   1.084       .  S
C1831      C1832   1.400       .  A
C1831      C1836   1.405       .  A
C1832      H1848   1.084       .  S
C1832      C1833   1.404       .  A
C1833      C1843   1.406       .  A
C1833      C1834   1.413       .  A
C1834      C1840   1.412       .  A
C1834      C1835   1.415   1_545  A
C1835      C1837   1.412       .  A
C1835      C1836   1.410   1_565  A
C1836      C1844   1.405   1_545  A
C1837      C1846   1.407       .  A
C1837      C1838   1.404       .  A
C1838      H1849   1.084       .  S
C1838      C1839   1.401       .  A
C1839      H1850   1.083       .  S
C1839      C1840   1.404   1_565  A
C1840      C1841   1.405       .  A
C1841      H1851   1.084       .  S
C1841      C1842   1.406       .  A
C1842      C1843   1.405       .  A
C1843      H1852   1.084       .  S
C1844      H1853   1.084       .  S
C1844      C1845   1.411       .  A
C1845      C1846   1.410       .  A
C1846      H1854   1.084       .  S
C1855      H1871   1.084       .  S
C1855      C1856   1.398       .  A
C1855      C1860   1.403       .  A
C1856      H1872   1.084       .  S
C1856      C1857   1.404       .  A
C1857      C1867   1.402       .  A
C1857      C1858   1.410       .  A
C1858      C1864   1.412       .  A
C1858      C1859   1.413       .  A
C1859      C1861   1.412       .  A
C1859      C1860   1.412       .  A
C1860      C1868   1.403       .  A
C1861      C1870   1.405       .  A
C1861      C1862   1.404       .  A
C1862      H1873   1.083       .  S
C1862      C1863   1.401       .  A
C1863      H1874   1.084       .  S
C1863      C1864   1.404       .  A
C1864      C1865   1.406       .  A
C1865      H1875   1.084       .  S
C1865      C1866   1.409       .  A
C1866      C1867   1.410       .  A
C1867      H1876   1.084       .  S
C1868      H1877   1.085       .  S
C1868      C1869   1.404       .  A
C1869      C1870   1.406       .  A
C1870      H1878   1.084       .  S
C1879      H1895   1.084       .  S
C1879      C1880   1.400       .  A
C1879      C1884   1.403       .  A
C1880      H1896   1.083       .  S
C1880      C1881   1.404       .  A
C1881      C1891   1.404       .  A
C1881      C1882   1.410       .  A
C1882      C1888   1.412       .  A
C1882      C1883   1.412       .  A
C1883      C1885   1.411       .  A
C1883      C1884   1.413       .  A
C1884      C1892   1.405       .  A
C1885      C1894   1.402       .  A
C1885      C1886   1.403       .  A
C1886      H1897   1.083       .  S
C1886      C1887   1.399       .  A
C1887      H1898   1.084       .  S
C1887      C1888   1.403       .  A
C1888      C1889   1.403       .  A
C1889      H1899   1.084       .  S
C1889      C1890   1.407       .  A
C1890      C1891   1.409       .  A
C1891      H1900   1.084       .  S
C1892      H1901   1.084       .  S
C1892      C1893   1.405       .  A
C1893      C1894   1.406       .  A
C1894      H1902   1.085       .  S
C1903      H1919   1.083       .  S
C1903      C1904   1.401   1_545  A
C1903      C1908   1.404       .  A
C1904      H1920   1.084       .  S
C1904      C1905   1.404       .  A
C1905      C1915   1.409       .  A
C1905      C1906   1.412   1_565  A
C1906      C1912   1.411       .  A
C1906      C1907   1.418       .  A
C1907      C1909   1.413       .  A
C1907      C1908   1.412       .  A
C1908      C1916   1.407       .  A
C1909      C1918   1.409       .  A
C1909      C1910   1.404       .  A
C1910      H1921   1.084       .  S
C1910      C1911   1.402       .  A
C1911      H1922   1.083       .  S
C1911      C1912   1.405       .  A
C1912      C1913   1.409   1_545  A
C1913      H1923   1.084       .  S
C1913      C1914   1.412       .  A
C1914      C1915   1.410       .  A
C1915      H1924   1.084       .  S
C1916      H1925   1.084       .  S
C1916      C1917   1.406       .  A
C1917      C1918   1.407       .  A
C1918      H1926   1.084       .  S
C1927      H1943   1.084       .  S
C1927      C1928   1.399       .  A
C1927      C1932   1.403       .  A
C1928      H1944   1.084       .  S
C1928      C1929   1.404       .  A
C1929      C1939   1.403       .  A
C1929      C1930   1.411       .  A
C1930      C1936   1.412       .  A
C1930      C1931   1.413       .  A
C1931      C1933   1.412       .  A
C1931      C1932   1.412       .  A
C1932      C1940   1.403       .  A
C1933      C1942   1.405       .  A
C1933      C1934   1.404       .  A
C1934      H1945   1.083       .  S
C1934      C1935   1.400       .  A
C1935      H1946   1.084       .  S
C1935      C1936   1.404       .  A
C1936      C1937   1.405       .  A
C1937      H1947   1.084       .  S
C1937      C1938   1.408       .  A
C1938      C1939   1.407       .  A
C1939      H1948   1.085       .  S
C1940      H1949   1.085       .  S
C1940      C1941   1.404       .  A
C1941      C1942   1.405       .  A
C1942      H1950   1.084       .  S
C1951      H1967   1.084       .  S
C1951      C1952   1.400       .  A
C1951      C1956   1.405       .  A
C1952      H1968   1.083       .  S
C1952      C1953   1.403       .  A
C1953      C1963   1.407       .  A
C1953      C1954   1.415       .  A
C1954      C1960   1.410       .  A
C1954      C1955   1.412       .  A
C1955      C1957   1.413       .  A
C1955      C1956   1.409       .  A
C1956      C1964   1.402       .  A
C1957      C1966   1.404       .  A
C1957      C1958   1.403       .  A
C1958      H1969   1.084       .  S
C1958      C1959   1.398       .  A
C1959      H1970   1.084       .  S
C1959      C1960   1.403       .  A
C1960      C1961   1.399       .  A
C1961      H1971   1.085       .  S
C1961      C1962   1.404       .  A
C1962      C1963   1.403       .  A
C1963      H1972   1.084       .  S
C1964      H1973   1.084       .  S
C1964      C1965   1.411   1_655  A
C1965      C1966   1.406   1_455  A
C1966      H1974   1.084   1_655  S
C1975      H1991   1.084       .  S
C1975      C1976   1.401   1_655  A
C1975      C1980   1.404   1_655  A
C1976      H1992   1.084   1_455  S
C1976      C1977   1.405       .  A
C1977      C1987   1.408       .  A
C1977      C1978   1.411       .  A
C1978      C1984   1.412       .  A
C1978      C1979   1.417       .  A
C1979      C1981   1.412       .  A
C1979      C1980   1.413       .  A
C1980      C1988   1.408       .  A
C1981      C1990   1.406       .  A
C1981      C1982   1.404       .  A
C1982      H1993   1.083       .  S
C1982      C1983   1.401       .  A
C1983      H1994   1.084       .  S
C1983      C1984   1.404       .  A
C1984      C1985   1.407       .  A
C1985      H1995   1.084       .  S
C1985      C1986   1.411       .  A
C1986      C1987   1.411       .  A
C1987      H1996   1.084       .  S
C1988      H1997   1.084   1_455  S
C1988      C1989   1.405       .  A
C1989      C1990   1.405       .  A
C1990      H1998   1.084       .  S
C1999      H2015   1.084       .  S
C1999      C2000   1.401       .  A
C1999      C2004   1.404       .  A
C2000      H2016   1.083       .  S
C2000      C2001   1.404       .  A
C2001      C2011   1.405       .  A
C2001      C2002   1.412       .  A
C2002      C2008   1.413       .  A
C2002      C2003   1.413       .  A
C2003      C2005   1.409       .  A
C2003      C2004   1.413       .  A
C2004      C2012   1.408       .  A
C2005      C2014   1.400       .  A
C2005      C2006   1.404       .  A
C2006      H2017   1.084       .  S
C2006      C2007   1.398       .  A
C2007      H2018   1.084       .  S
C2007      C2008   1.402       .  A
C2008      C2009   1.401       .  A
C2009      H2019   1.085       .  S
C2009      C2010   1.402       .  A
C2010      C2011   1.405       .  A
C2011      H2020   1.084       .  S
C2012      H2021   1.084       .  S
C2012      C2013   1.409       .  A
C2013      C2014   1.410       .  A
C2014      H2022   1.084       .  S
C2023      H2039   1.084       .  S
C2023      C2024   1.399       .  A
C2023      C2028   1.404   1_455  A
C2024      H2040   1.084       .  S
C2024      C2025   1.404       .  A
C2025      C2035   1.404       .  A
C2025      C2026   1.412       .  A
C2026      C2032   1.411       .  A
C2026      C2027   1.413   1_455  A
C2027      C2029   1.413       .  A
C2027      C2028   1.411       .  A
C2028      C2036   1.403       .  A
C2029      C2038   1.404       .  A
C2029      C2030   1.403       .  A
C2030      H2041   1.084       .  S
C2030      C2031   1.399       .  A
C2031      H2042   1.084       .  S
C2031      C2032   1.404   1_655  A
C2032      C2033   1.404       .  A
C2033      H2043   1.084       .  S
C2033      C2034   1.408       .  A
C2034      C2035   1.408       .  A
C2035      H2044   1.084       .  S
C2036      H2045   1.084       .  S
C2036      C2037   1.406       .  A
C2037      C2038   1.404       .  A
C2038      H2046   1.085       .  S
C2047      H2063   1.083       .  S
C2047      C2048   1.402       .  A
C2047      C2052   1.405       .  A
C2048      H2064   1.084       .  S
C2048      C2049   1.405       .  A
C2049      C2059   1.409       .  A
C2049      C2050   1.412       .  A
C2050      C2056   1.410       .  A
C2050      C2051   1.415       .  A
C2051      C2053   1.413       .  A
C2051      C2052   1.412       .  A
C2052      C2060   1.408       .  A
C2053      C2062   1.403       .  A
C2053      C2054   1.403       .  A
C2054      H2065   1.084       .  S
C2054      C2055   1.398       .  A
C2055      H2066   1.084       .  S
C2055      C2056   1.404       .  A
C2056      C2057   1.403       .  A
C2057      H2067   1.084       .  S
C2057      C2058   1.410       .  A
C2058      C2059   1.411       .  A
C2059      H2068   1.084       .  S
C2060      H2069   1.084       .  S
C2060      C2061   1.406       .  A
C2061      C2062   1.403       .  A
C2062      H2070   1.085       .  S
