geometry optimzed in LAMMPS
_audit_creation_date              2020-11-30 
_audit_creation_method            'lammps2cif' 
_symmetry_space_group_name_H-M    'P1' 
_symmetry_Int_Tables_number       1 
_symmetry_cell_setting            triclinic 
loop_ 
_symmetry_equiv_pos_as_xyz 
  x,y,z 
_cell_length_a                    52.89882443 
_cell_length_b                    52.8154326966772 
_cell_length_c                    36.39486110499402 
_cell_angle_alpha                 89.89079362526559 
_cell_angle_beta                  90.10115854204504 
_cell_angle_gamma                 90.29554885384414 
loop_ 
_atom_site_label 
_atom_site_type_symbol 
_atom_site_fract_x 
_atom_site_fract_y 
_atom_site_fract_z 
_atom_site_charge 
N1          N  0.78905902  0.73050411  0.73416228    -0.35800
N2          N  0.78102991  0.77726621  0.77473192    -0.56400
N3          N  0.73326175  0.78496095  0.73705934    -0.35800
N4          N  0.73992666  0.73682540  0.69903874    -0.56400
C5          C  0.80720242  0.72855745  0.76036882     0.27800
C6          C  0.78565757  0.70720332  0.71934429     0.27800
C7          C  0.73138759  0.80215005  0.76449943     0.27800
C8          C  0.70968006  0.78096279  0.72369949     0.27800
C9          C  0.80527585  0.77265977  0.78423025     0.36400
C10         C  0.77607952  0.80120076  0.78551805     0.36400
C11         C  0.74879129  0.71710896  0.67919932     0.36400
C12         C  0.71951003  0.74576361  0.68073884     0.36400
C13         C  0.81567213  0.70377093  0.76187519    -0.21100
C14         C  0.80208798  0.69030897  0.73600791    -0.21100
C15         C  0.70633931  0.80929654  0.76837883    -0.21100
C16         C  0.69265323  0.79594824  0.74260494    -0.21100
C17         C  0.81582886  0.79380345  0.80089192    -0.22200
C18         C  0.79736298  0.81195684  0.80149058    -0.22200
C19         C  0.73393979  0.71354248  0.64819871    -0.22200
C20         C  0.71544003  0.73168859  0.64914467    -0.22200
C21         C  0.81706492  0.74880667  0.78171678    -0.17500
C22         C  0.76892771  0.70111583  0.69006382    -0.17500
C23         C  0.70337295  0.76516227  0.69361712    -0.17500
C24         C  0.75183931  0.81229035  0.78504613    -0.17500
H25         H  0.83022135  0.69618345  0.77964296     0.15400
H26         H  0.80414700  0.67035685  0.73005355     0.15400
H27         H  0.69869323  0.82278869  0.78769382     0.15400
H28         H  0.67245852  0.79720600  0.73818790     0.15400
H29         H  0.83466243  0.79571915  0.81225796     0.13700
H30         H  0.79911519  0.83062505  0.81347509     0.13700
H31         H  0.73604161  0.69918505  0.62725944     0.13700
H32         H  0.70050477  0.73402651  0.62907993     0.13700
H33         H  0.78126921  0.74723978  0.72437943     0.26900
H34         H  0.74993122  0.77834140  0.72552481     0.26900
N35         N  0.76755216  0.22877755  0.79763839    -0.35800
N36         N  0.77468101  0.27733938  0.75943378    -0.56400
N37         N  0.72710051  0.26968424  0.72246066    -0.35800
N38         N  0.71850555  0.22280370  0.76381528    -0.56400
C39         C  0.78756018  0.23856223  0.81594195     0.27800
C40         C  0.75747913  0.21035319  0.81909452     0.27800
C41         C  0.73186830  0.29405025  0.71292934     0.27800
C42         C  0.70267685  0.26474217  0.71406412     0.27800
C43         C  0.79820575  0.27379829  0.77295268     0.36400
C44         C  0.77648779  0.29606690  0.73410006     0.36400
C45         C  0.72059885  0.19980982  0.77990545     0.36400
C46         C  0.69996561  0.22066146  0.73845923     0.36400
C47         C  0.79030362  0.22618068  0.84937334    -0.21100
C48         C  0.77130440  0.20835397  0.85134438    -0.21100
C49         C  0.71011689  0.30473192  0.69844395    -0.21100
C50         C  0.69173570  0.28617603  0.69893892    -0.21100
C51         C  0.81501291  0.29048580  0.75638606    -0.22200
C52         C  0.80126629  0.30455159  0.73171751    -0.22200
C53         C  0.70314783  0.18307636  0.76502549    -0.22200
C54         C  0.69003943  0.19629913  0.73874763    -0.22200
C55         C  0.80431943  0.25722447  0.80218885    -0.17500
C56         C  0.73722329  0.19420219  0.80916245    -0.17500
C57         C  0.69076985  0.24077958  0.71669730    -0.17500
C58         C  0.75584146  0.30612213  0.71406476    -0.17500
H59         H  0.80468452  0.22944712  0.87004318     0.15400
H60         H  0.76819034  0.19523294  0.87378782     0.15400
H61         H  0.70787430  0.32374448  0.68781928     0.15400
H62         H  0.67260620  0.28811444  0.68875497     0.15400
H63         H  0.83506481  0.29244148  0.76171364     0.13700
H64         H  0.80868474  0.31934563  0.71411016     0.13700
H65         H  0.70010463  0.16344357  0.77244341     0.13700
H66         H  0.67477959  0.18888136  0.72202000     0.13700
H67         H  0.76303318  0.23243571  0.77034488     0.26900
H68         H  0.74043954  0.25617170  0.72953798     0.26900
N69         N  0.22925510  0.23857503  0.78253408    -0.35800
N70         N  0.27820373  0.23144219  0.74677132    -0.56400
N71         N  0.27326536  0.28040386  0.71189316    -0.35800
N72         N  0.22578068  0.28903851  0.75061620    -0.56400
C73         C  0.23798974  0.21832969  0.80144453     0.27800
C74         C  0.20970789  0.24820256  0.80189811     0.27800
C75         C  0.29735938  0.27483858  0.70251569     0.27800
C76         C  0.26976353  0.30530984  0.70499043     0.27800
C77         C  0.27548130  0.20835670  0.76242047     0.36400
C78         C  0.29800965  0.22987888  0.72340629     0.36400
C79         C  0.20215593  0.28684131  0.76441661     0.36400
C80         C  0.22534926  0.30892491  0.72720854     0.36400
C81         C  0.22349630  0.21482025  0.83283014    -0.21100
C82         C  0.20563324  0.23362386  0.83305950    -0.21100
C83         C  0.30927333  0.29646213  0.68935001    -0.21100
C84         C  0.29188606  0.31570808  0.69102528    -0.21100
C85         C  0.29379457  0.19207384  0.74919186    -0.22200
C86         C  0.30799606  0.20566950  0.72435965    -0.22200
C87         C  0.18674783  0.30558489  0.75019331    -0.22200
C88         C  0.20138704  0.31947259  0.72638376    -0.22200
C89         C  0.25808252  0.20235208  0.79066707    -0.17500
C90         C  0.19473219  0.26912108  0.79141592    -0.17500
C91         C  0.24652149  0.31832489  0.70768292    -0.17500
C92         C  0.30836384  0.25047627  0.70335844    -0.17500
H93         H  0.22550117  0.20017039  0.85345138     0.15400
H94         H  0.19129332  0.23626985  0.85386488     0.15400
H95         H  0.32840820  0.29814917  0.67912407     0.15400
H96         H  0.29501108  0.33506167  0.68223541     0.15400
H97         H  0.29680947  0.17253418  0.75700419     0.13700
H98         H  0.32416878  0.19868517  0.70935993     0.13700
H99         H  0.16703124  0.30889824  0.75635743     0.13700
H100        H  0.19510224  0.33558738  0.71045887     0.13700
H101        H  0.23465481  0.24399224  0.75625028     0.26900
H102        H  0.25911566  0.26739444  0.71796881     0.26900
N103        N  0.22206283  0.78360618  0.76690856    -0.35800
N104        N  0.21877987  0.73357206  0.73394650    -0.56400
N105        N  0.26567420  0.74343205  0.69349719    -0.35800
N106        N  0.27053140  0.79206764  0.72961883    -0.56400
C107        C  0.20304885  0.77339809  0.78714016     0.27800
C108        C  0.23054276  0.80438501  0.78499767     0.27800
C109        C  0.26237882  0.71839975  0.68702537     0.27800
C110        C  0.29004878  0.74917790  0.68539890     0.27800
C111        C  0.19601957  0.73393835  0.75085943     0.36400
C112        C  0.21860429  0.71314478  0.71160475     0.36400
C113        C  0.26734637  0.81521043  0.74470010     0.36400
C114        C  0.29027206  0.79409232  0.70615596     0.36400
C115        C  0.19896011  0.78827573  0.81788311    -0.21100
C116        C  0.21630827  0.80774487  0.81659646    -0.21100
C117        C  0.28478189  0.70816927  0.67425481    -0.21100
C118        C  0.30227096  0.72752053  0.67346978    -0.21100
C119        C  0.18145159  0.71351467  0.73952021    -0.22200
C120        C  0.19567956  0.70043383  0.71449286    -0.22200
C121        C  0.28510420  0.83202046  0.73070089    -0.22200
C122        C  0.29955712  0.81867884  0.70619886    -0.22200
C123        C  0.18883003  0.75138499  0.77831338    -0.17500
C124        C  0.25031692  0.82083285  0.77347504    -0.17500
C125        C  0.30131887  0.77360044  0.68705814    -0.17500
C126        C  0.23942591  0.70472013  0.69063753    -0.17500
H127        H  0.18500277  0.78535603  0.83920600     0.15400
H128        H  0.21822856  0.82266055  0.83677838     0.15400
H129        H  0.28819219  0.68873468  0.66637323     0.15400
H130        H  0.32176139  0.72581761  0.66486938     0.15400
H131        H  0.16261531  0.70843845  0.74858431     0.13700
H132        H  0.18994149  0.68325473  0.70054199     0.13700
H133        H  0.28768874  0.85173161  0.73795364     0.13700
H134        H  0.31541445  0.82612153  0.69076113     0.13700
H135        H  0.22751840  0.77800093  0.74080402     0.26900
H136        H  0.25140216  0.75625445  0.69922118     0.26900
N137        N  0.23658923  0.77131244  0.20034521    -0.35800
N138        N  0.23043602  0.72144828  0.23374625    -0.56400
N139        N  0.27784557  0.72900474  0.27261123    -0.35800
N140        N  0.28558007  0.77740510  0.23618989    -0.56400
C141        C  0.21693448  0.76196955  0.18062774     0.27800
C142        C  0.24604511  0.79135072  0.18152389     0.27800
C143        C  0.27343902  0.70416562  0.27938679     0.27800
C144        C  0.30230288  0.73375416  0.28123047     0.27800
C145        C  0.20696502  0.72464865  0.21983096     0.36400
C146        C  0.22879508  0.70222445  0.25821039     0.36400
C147        C  0.28285965  0.80095091  0.22203409     0.36400
C148        C  0.30437773  0.77881251  0.26140712     0.36400
C149        C  0.21377034  0.77632253  0.14902171    -0.21100
C150        C  0.23214454  0.79485281  0.14957802    -0.21100
C151        C  0.29541193  0.69294687  0.29217331    -0.21100
C152        C  0.31363902  0.71162915  0.29333218    -0.21100
C153        C  0.19037400  0.70724772  0.23518691    -0.22200
C154        C  0.20417418  0.69313604  0.25973133    -0.22200
C155        C  0.30023817  0.81732222  0.23795622    -0.22200
C156        C  0.31378827  0.80333585  0.26302111    -0.22200
C157        C  0.20076253  0.74192902  0.19163547    -0.17500
C158        C  0.26581089  0.80752279  0.19353890    -0.17500
C159        C  0.31391905  0.75796190  0.28161759    -0.17500
C160        C  0.24953947  0.69204137  0.27775194    -0.17500
H161        H  0.19951488  0.77388338  0.12793219     0.15400
H162        H  0.23478702  0.80942433  0.12896699     0.15400
H163        H  0.29787988  0.67345257  0.30061945     0.15400
H164        H  0.33288938  0.70933710  0.30285315     0.15400
H165        H  0.17044782  0.70491910  0.22920072     0.13700
H166        H  0.19692605  0.67781490  0.27652369     0.13700
H167        H  0.30289451  0.83725493  0.23207811     0.13700
H168        H  0.32893130  0.81041158  0.28026209     0.13700
H169        H  0.24134579  0.76617438  0.22702677     0.26900
H170        H  0.26414828  0.74259693  0.26751631     0.26900
N171        N  0.71597980  0.76009810  0.23384962    -0.35800
N172        N  0.72096142  0.71078656  0.26596779    -0.56400
N173        N  0.77066334  0.70480229  0.23105422    -0.35800
N174        N  0.76687488  0.75561762  0.20187563    -0.56400
C175        C  0.69707593  0.76100877  0.25892436     0.27800
C176        C  0.72030021  0.78402017  0.22219244     0.27800
C177        C  0.77056615  0.68505972  0.25483365     0.27800
C178        C  0.79498544  0.70890212  0.22071844     0.27800
C179        C  0.69693612  0.71557811  0.27631344     0.36400
C180        C  0.72506037  0.68611995  0.27325792     0.36400
C181        C  0.75843682  0.77626344  0.18368128     0.36400
C182        C  0.78803421  0.74803897  0.18422861     0.36400
C183        C  0.68924738  0.78587449  0.26300081    -0.21100
C184        C  0.70369655  0.80034600  0.23948942    -0.21100
C185        C  0.79504777  0.67617266  0.25906698    -0.21100
C186        C  0.81042581  0.69119754  0.23755837    -0.21100
C187        C  0.68560154  0.69380274  0.28986264    -0.22200
C188        C  0.70342972  0.67510124  0.28791090    -0.22200
C189        C  0.77442631  0.78198517  0.15465810    -0.22200
C190        C  0.79311542  0.76406285  0.15492610    -0.22200
C191        C  0.68601869  0.73987033  0.27698137    -0.17500
C192        C  0.73761491  0.79115628  0.19447690    -0.17500
C193        C  0.80341577  0.72750273  0.19526660    -0.17500
C194        C  0.74895084  0.67442782  0.27215497    -0.17500
H195        H  0.67443682  0.79287954  0.28069712     0.15400
H196        H  0.70211754  0.82059264  0.23555739     0.15400
H197        H  0.80123339  0.66047439  0.27593462     0.15400
H198        H  0.83069596  0.68933540  0.23475181     0.15400
H199        H  0.66671543  0.69178095  0.30091806     0.13700
H200        H  0.70106435  0.65581682  0.29748303     0.13700
H201        H  0.77293105  0.79760121  0.13548850     0.13700
H202        H  0.80868680  0.76301628  0.13575495     0.13700
H203        H  0.72365091  0.74397445  0.22208358     0.26900
H204        H  0.75473909  0.71339376  0.22000880     0.26900
N205        N  0.77747082  0.22441213  0.21614993    -0.35800
N206        N  0.73185676  0.21366515  0.25889206    -0.56400
N207        N  0.73463099  0.26479734  0.28980962    -0.35800
N208        N  0.78208088  0.27409514  0.25064639    -0.56400
C209        C  0.77409671  0.19961844  0.20776861     0.27800
C210        C  0.80060808  0.23135614  0.20357526     0.27800
C211        C  0.71500073  0.25522942  0.30945956     0.27800
C212        C  0.74226102  0.28644365  0.30663117     0.27800
C213        C  0.73191096  0.19269180  0.23754018     0.36400
C214        C  0.70920589  0.21408350  0.27614823     0.36400
C215        C  0.80172682  0.27600851  0.22702710     0.36400
C216        C  0.77971484  0.29692403  0.26704386     0.36400
C217        C  0.79517313  0.19083142  0.18923365    -0.21100
C218        C  0.81186942  0.21079262  0.18660856    -0.21100
C219        C  0.70965090  0.27136382  0.33840238    -0.21100
C220        C  0.72688683  0.29090008  0.33677983    -0.21100
C221        C  0.70942729  0.17944652  0.24197729    -0.22200
C222        C  0.69513003  0.19290152  0.26650101    -0.22200
C223        C  0.81199440  0.30019469  0.22860117    -0.22200
C224        C  0.79810345  0.31340422  0.25397147    -0.22200
C225        C  0.75193504  0.18505275  0.21424933    -0.17500
C226        C  0.81155704  0.25591545  0.20565697    -0.17500
C227        C  0.76222147  0.30276235  0.29519456    -0.17500
C228        C  0.70123034  0.23274622  0.30150344    -0.17500
H229        H  0.79816158  0.17199994  0.17843611     0.15400
H230        H  0.83016763  0.21021853  0.17337530     0.15400
H231        H  0.69492317  0.26925421  0.35880434     0.15400
H232        H  0.72787237  0.30666275  0.35570561     0.15400
H233        H  0.70384548  0.16190481  0.22886997     0.13700
H234        H  0.67642981  0.18770469  0.27600223     0.13700
H235        H  0.82806239  0.30747456  0.21345582     0.13700
H236        H  0.80135616  0.33284346  0.26215844     0.13700
H237        H  0.76412016  0.23616245  0.22588876     0.26900
H238        H  0.74069112  0.25834385  0.26528107     0.26900
O239        O  0.53083305  0.77874776  0.46424165    -0.81000
C240        C  0.51317163  0.86659706  0.54165759     0.98300
O241        O  0.53150416  0.85252514  0.53362939    -0.70100
O242        O  0.55401483  0.81030124  0.51747432    -0.73700
Al243      Al  0.53526624  0.83408532  0.48937885     1.49000
C244        C  0.54809303  0.79297607  0.53974796     0.93600
O245        O  0.47529450  0.78522594  0.53274735    -0.79900
O246        O  0.45626612  0.81437101  0.47295797    -0.73500
Al247      Al  0.50332126  0.78542903  0.49820864     1.90100
O248        O  0.46875001  0.82542315  0.54406081    -0.72600
O249        O  0.48376854  0.85188304  0.44997626    -0.72400
O250        O  0.49321592  0.86604699  0.52250569    -0.78100
O251        O  0.52350446  0.86152429  0.45899636    -0.76300
O252        O  0.50547747  0.81900828  0.49501680    -1.12400
O253        O  0.54194320  0.81663154  0.44535952    -0.71600
C254        C  0.54316929  0.79286564  0.44235123     0.99100
C255        C  0.46464109  0.80244338  0.55141790     0.95500
Al256      Al  0.47783800  0.83790141  0.49717502     1.55600
O257        O  0.52588897  0.78389573  0.53996964    -0.76200
C258        C  0.50360111  0.86314098  0.43987874     0.99700
C259        C  0.46040220  0.79536549  0.45293998     0.94500
O260        O  0.48078738  0.78317350  0.45663110    -0.81600
O261        O  0.71967582  0.96489549  0.03684071    -0.81000
C262        C  0.63519911  0.99139846  0.95715499     0.98300
O263        O  0.64731717  0.97184033  0.96573023    -0.70100
O264        O  0.68824186  0.94724000  0.98034646    -0.73700
Al265      Al  0.66480301  0.96535818  0.00998001     1.49000
C266        C  0.70601308  0.95370813  0.95905916     0.93600
O267        O  0.71852685  0.02484831  0.97630616    -0.79900
O268        O  0.68777760  0.04190837  0.03620399    -0.73500
Al269      Al  0.71531070  0.99498265  0.00681964     1.90100
O270        O  0.67935004  0.03396870  0.96234871    -0.72600
O271        O  0.64727527  0.01627159  0.05122726    -0.72400
O272        O  0.63694477  0.01104598  0.97677878    -0.78100
O273        O  0.63736362  0.97681690  0.04067719    -0.76300
O274        O  0.68148398  0.99460139  0.00794468    -1.12400
O275        O  0.68095047  0.95562635  0.05382070    -0.71600
C276        C  0.70439976  0.95210597  0.05629748     0.99100
C277        C  0.70266932  0.03691415  0.95707053     0.95500
Al278      Al  0.66426545  0.02335293  0.00677149     1.55600
O279        O  0.71650022  0.97515129  0.96267621    -0.76200
C280        C  0.63492112  0.99668686  0.05961967     0.99700
C281        C  0.70644603  0.03577823  0.05597206     0.94500
O282        O  0.71774971  0.01499796  0.05074546    -0.81600
O283        O  0.28174826  0.98679574  0.94823018    -0.81000
C284        C  0.37020270  0.00118340  0.03460290     0.98300
O285        O  0.36461179  0.98191488  0.01587877    -0.70100
O286        O  0.32062171  0.96431775  0.03400646    -0.73700
Al287      Al  0.33496567  0.97308701  0.98864016     1.49000
C288        C  0.29748113  0.96380258  0.04199630     0.93600
O289        O  0.28846653  0.02704477  0.03527397    -0.79900
O290        O  0.32370429  0.04404369  0.94455803    -0.73500
Al291      Al  0.28712334  0.00654539  0.99185634     1.90100
O292        O  0.32060959  0.05100627  0.01900294    -0.72600
O293        O  0.36440601  0.01727690  0.95309255    -0.72400
O294        O  0.35968893  0.02206283  0.02830147    -0.78100
O295        O  0.35107964  0.97854498  0.94288244    -0.76300
O296        O  0.32082560  0.00369085  0.98900667    -1.12400
O297        O  0.30860799  0.95672944  0.96191127    -0.71600
C298        C  0.29028482  0.96479678  0.94318355     0.99100
C299        C  0.30193098  0.04668996  0.03964561     0.95500
Al300      Al  0.34043644  0.03118978  0.98646142     1.55600
O301        O  0.28198039  0.97726283  0.02398134    -0.76200
C302        C  0.36473015  0.99723584  0.93426043     0.99700
C303        C  0.30040416  0.04824426  0.94143816     0.94500
O304        O  0.28472523  0.03623224  0.96115588    -0.81600
O305        O  0.48180391  0.21401356  0.46007843    -0.81000
C306        C  0.50420737  0.13019832  0.55404953     0.98300
O307        O  0.48358720  0.13431556  0.53755775    -0.70100
O308        O  0.46402659  0.17859762  0.55212482    -0.73700
Al309      Al  0.47199038  0.16208178  0.50756897     1.49000
C310        C  0.46181066  0.20222324  0.55585419     0.93600
O311        O  0.52433598  0.21290569  0.54565246    -0.79900
O312        O  0.53992960  0.17540464  0.45568183    -0.73500
Al313      Al  0.50313397  0.21177039  0.50296270     1.90100
O314        O  0.54972806  0.18215744  0.52919327    -0.72600
O315        O  0.51597660  0.13356715  0.46990520    -0.72400
O316        O  0.52393719  0.14172531  0.54427682    -0.78100
O317        O  0.47636317  0.14400337  0.46284467    -0.76300
O318        O  0.50169294  0.17785642  0.50355870    -1.12400
O319        O  0.45361803  0.18626993  0.47926432    -0.71600
C320        C  0.45983605  0.20438368  0.45839940     0.99100
C321        C  0.54462007  0.20061680  0.54987228     0.95500
Al322      Al  0.52990370  0.15977676  0.50007841     1.55600
O323        O  0.47439589  0.21701050  0.53532201    -0.76200
C324        C  0.49538319  0.13165684  0.45249290     0.99700
C325        C  0.54406552  0.19868353  0.45129509     0.94500
O326        O  0.53238029  0.21461828  0.47080001    -0.81600
C327        C  0.49339415  0.99983554  0.24769518    -0.01700
C328        C  0.50642786  0.99062908  0.75020209    -0.01700
O329        O  0.78646156  0.51922885  0.54355321    -0.81000
C330        C  0.86393616  0.49402796  0.44205687     0.98300
O331        O  0.86307902  0.51339273  0.46224505    -0.70100
O332        O  0.81939702  0.53386648  0.44847816    -0.73700
Al333      Al  0.83643097  0.52598179  0.49234659     1.49000
C334        C  0.79576736  0.53546236  0.44485202     0.93600
O335        O  0.78205508  0.47478447  0.46017196    -0.79900
O336        O  0.82476389  0.45805339  0.54420406    -0.73500
Al337      Al  0.78643144  0.49670927  0.50151935     1.90100
O338        O  0.81258566  0.44822561  0.47303464    -0.72600
O339        O  0.86629478  0.48158371  0.52321850    -0.72400
O340        O  0.85154337  0.47448599  0.45063929    -0.78100
O341        O  0.85475745  0.52052427  0.53598582    -0.76300
O342        O  0.81993715  0.49683448  0.49738196    -1.12400
O343        O  0.81380123  0.54600768  0.52047216    -0.71600
C344        C  0.79627749  0.54113259  0.54283455     0.99100
C345        C  0.79283312  0.45378623  0.45553492     0.95500
Al346      Al  0.83737744  0.46803432  0.49774097     1.55600
O347        O  0.78110705  0.52448020  0.46750037    -0.76200
C348        C  0.86838504  0.50148757  0.54224894     0.99700
C349        C  0.80171297  0.45550789  0.55230185     0.94500
O350        O  0.78512794  0.46846815  0.53555383    -0.81600
O351        O  0.02455687  0.71637372  0.03882623    -0.81000
C352        C  0.00133346  0.63086050  0.95093507     0.98300
O353        O  0.02095383  0.63380325  0.97024410    -0.70100
O354        O  0.04231613  0.67688020  0.95139392    -0.73700
Al355      Al  0.03303465  0.66256267  0.99727686     1.49000
C356        C  0.04395332  0.70021158  0.94412960     0.93600
O357        O  0.98182602  0.71380878  0.95406559    -0.79900
O358        O  0.96503808  0.67776652  0.04501805    -0.73500
Al359      Al  0.00317573  0.71295165  0.99659009     1.90100
O360        O  0.95547584  0.68408055  0.97113093    -0.72600
O361        O  0.98790445  0.63525807  0.03177659    -0.72400
O362        O  0.98190323  0.64378639  0.95743138    -0.78100
O363        O  0.02693210  0.64651399  0.04356338    -0.76300
O364        O  0.00374151  0.67917509  0.99834395    -1.12400
O365        O  0.05204566  0.68736369  0.02321479    -0.71600
C366        C  0.04612680  0.70647156  0.04186228     0.99100
C367        C  0.96102644  0.70227648  0.95009682     0.95500
Al368      Al  0.97503944  0.66170025  0.00110146     1.55600
O369        O  0.03162163  0.71610954  0.96305381    -0.76200
C370        C  0.00754979  0.63355444  0.05141832     0.99700
C371        C  0.96269150  0.70123003  0.04995012     0.94500
O372        O  0.97448048  0.71684146  0.02961761    -0.81600
O373        O  0.98232200  0.28312469  0.04129503    -0.81000
C374        C  0.00119020  0.36838347  0.94950804     0.98300
O375        O  0.98152344  0.36455323  0.96828607    -0.70100
O376        O  0.96102709  0.32095374  0.95377601    -0.73700
Al377      Al  0.97099897  0.33646606  0.99801569     1.49000
C378        C  0.95989118  0.29757544  0.94755642     0.93600
O379        O  0.02158549  0.28667951  0.95288125    -0.79900
O380        O  0.04052420  0.32245256  0.04344998    -0.73500
Al381      Al  0.00196097  0.28673279  0.99724597     1.90100
O382        O  0.04805214  0.31662558  0.96983324    -0.72600
O383        O  0.01686355  0.36450707  0.03151170    -0.72400
O384        O  0.02124778  0.35668646  0.95696255    -0.78100
O385        O  0.97743385  0.35394499  0.04206709    -0.76300
O386        O  0.00069450  0.32060566  0.99864804    -1.12400
O387        O  0.95394707  0.31200126  0.02786229    -0.71600
C388        C  0.96142044  0.29380459  0.04762550     0.99100
C389        C  0.04234027  0.29834318  0.94920409     0.95500
Al390      Al  0.02917381  0.33859926  0.00023166     1.55600
O391        O  0.97258663  0.28223567  0.96673007    -0.76200
C392        C  0.99699847  0.36626352  0.05028902     0.99700
C393        C  0.04422936  0.29904234  0.04714865     0.94500
O394        O  0.03201880  0.28342517  0.02751742    -0.81600
O395        O  0.21797627  0.48572993  0.53822630    -0.81000
C396        C  0.13560635  0.50826844  0.44473880     0.98300
O397        O  0.13626216  0.49005496  0.46731189    -0.70100
O398        O  0.17786247  0.46563679  0.45303891    -0.73700
Al399      Al  0.16394423  0.47801292  0.49680876     1.49000
C400        C  0.20099236  0.46240494  0.44654709     0.93600
O401        O  0.21822554  0.52540539  0.45029725    -0.79900
O402        O  0.18077684  0.54628763  0.53782953    -0.73500
Al403      Al  0.21573948  0.50557354  0.49439907     1.90100
O404        O  0.18972570  0.55340109  0.46523099    -0.72600
O405        O  0.13711788  0.52509479  0.52330515    -0.72400
O406        O  0.14949380  0.52743774  0.44918104    -0.78100
O407        O  0.14855808  0.48739111  0.54161526    -0.76300
O408        O  0.18201746  0.50635985  0.49498409    -1.12400
O409        O  0.18701300  0.45947380  0.52577488    -0.71600
C410        C  0.20621303  0.46533530  0.54439942     0.99100
C411        C  0.20775579  0.54654450  0.44514197     0.95500
Al412      Al  0.16570134  0.53563435  0.49396018     1.55600
O413        O  0.21761349  0.47548624  0.46343404    -0.76200
C414        C  0.13537409  0.50691066  0.54576700     0.99700
C415        C  0.20414100  0.54818185  0.54427517     0.94500
O416        O  0.21991834  0.53533306  0.52575848    -0.81600
C417        C  0.99925918  0.49646111  0.24916926    -0.01700
C418        C  0.00041770  0.50044448  0.74547678    -0.01700
N419        N  0.23864617  0.23645718  0.20123776    -0.35800
N420        N  0.22844672  0.28161337  0.24423827    -0.56400
N421        N  0.27630412  0.27469028  0.28386130    -0.35800
N422        N  0.28489787  0.22781967  0.24363614    -0.56400
C423        C  0.21475500  0.24135397  0.18992385     0.27800
C424        C  0.24440664  0.21279346  0.18989830     0.27800
C425        C  0.26559232  0.29314796  0.30436184     0.27800
C426        C  0.29567988  0.26488079  0.30368698     0.27800
C427        C  0.20929550  0.28357625  0.21967858     0.36400
C428        C  0.22874813  0.30340093  0.26370997     0.36400
C429        C  0.28723744  0.20896940  0.21873733     0.36400
C430        C  0.30711270  0.22913466  0.26207549     0.36400
C431        C  0.20542845  0.22073081  0.17055303    -0.21100
C432        C  0.22408966  0.20273330  0.17056432    -0.21100
C433        C  0.27862927  0.29539211  0.33731727    -0.21100
C434        C  0.29752029  0.27755664  0.33693047    -0.21100
C435        C  0.19723572  0.30662581  0.22383503    -0.22200
C436        C  0.20954360  0.31917196  0.25168165    -0.22200
C437        C  0.31095709  0.19811380  0.22162233    -0.22200
C438        C  0.32355560  0.21090994  0.24895324    -0.22200
C439        C  0.20145001  0.26426839  0.19514189    -0.17500
C440        C  0.26788415  0.20042497  0.19474170    -0.17500
C441        C  0.31221219  0.24528481  0.29230755    -0.17500
C442        C  0.24495409  0.30867512  0.29379516    -0.17500
H443        H  0.18710751  0.21884521  0.15753279     0.15400
H444        H  0.22285939  0.18437130  0.15751046     0.15400
H445        H  0.27489366  0.30849664  0.35945926     0.15400
H446        H  0.31107831  0.27430330  0.35871944     0.15400
H447        H  0.18104151  0.31355854  0.20871321     0.13700
H448        H  0.20469275  0.33768012  0.26217583     0.13700
H449        H  0.31835809  0.18245790  0.20587103     0.13700
H450        H  0.34256288  0.20701596  0.25837574     0.13700
H451        H  0.25117765  0.24939479  0.21260947     0.26900
H452        H  0.27220065  0.27075348  0.25657968     0.26900
C453        C  0.04519030  0.52470331  0.66742997    -0.13600
C454        C  0.06090975  0.50396757  0.66173841     0.16800
C455        C  0.05832644  0.48274683  0.68488699     0.03100
C456        C  0.03989811  0.48245785  0.71250644    -0.12100
C457        C  0.02314806  0.50291117  0.71802423    -0.03100
C458        C  0.02602634  0.52426196  0.69381487     0.02300
C459        C  0.07993385  0.50502993  0.63164230     0.09200
N460        N  0.07307779  0.46051097  0.67911438     0.65500
H461        H  0.03773880  0.46500651  0.72771747     0.18400
N462        N  0.00912504  0.54537712  0.69368796     0.76000
H463        H  0.04734556  0.54144883  0.65046170     0.10000
C464        C  0.07334749  0.51276910  0.59559899     0.03700
C465        C  0.09195402  0.51441948  0.56837047    -0.05100
C466        C  0.11701713  0.50788878  0.57604639    -0.23400
C467        C  0.12378656  0.50075398  0.61203521     0.12900
C468        C  0.10532143  0.49954113  0.63948838    -0.12600
N469        N  0.04770121  0.51793995  0.58574738     0.64600
H470        H  0.08656839  0.51972296  0.54065973     0.12400
N471        N  0.14953873  0.49580081  0.62143860     0.61200
H472        H  0.11096652  0.49475557  0.66725578     0.08600
O473        O  0.99405344  0.54741303  0.66693704    -0.40200
O474        O  0.01585710  0.56542477  0.70986200    -0.39400
O475        O  0.08933949  0.45406986  0.70270715    -0.39400
O476        O  0.06688538  0.44518685  0.65407139    -0.37100
O477        O  0.16459679  0.51408058  0.62649762    -0.38000
O478        O  0.15599716  0.47377803  0.63093721    -0.34200
O479        O  0.04152083  0.54001838  0.57605080    -0.35600
O480        O  0.03251736  0.49980430  0.58046261    -0.39900
C481        C  0.10776483  0.51233540  0.34893885    -0.13600
C482        C  0.08270719  0.50458134  0.35534467     0.16800
C483        C  0.07533768  0.49847473  0.39178431     0.03100
C484        C  0.09313469  0.49911068  0.42014983    -0.12100
C485        C  0.11791215  0.50721899  0.41364540    -0.03100
C486        C  0.12517167  0.51436895  0.37782561     0.02300
C487        C  0.06481516  0.50112419  0.32400410     0.09200
N488        N  0.04968836  0.49226003  0.40070784     0.65500
H489        H  0.08728652  0.49416024  0.44779891     0.18400
N490        N  0.15031752  0.52292641  0.37005316     0.76000
H491        H  0.11423349  0.51610091  0.32127801     0.10000
C492        C  0.06221279  0.51871723  0.29506834     0.03700
C493        C  0.04298957  0.51544169  0.26892435    -0.05100
C494        C  0.02437481  0.49622763  0.27259760    -0.23400
C495        C  0.03004249  0.47645510  0.29826083     0.12900
C496        C  0.05010776  0.47913176  0.32287803    -0.12600
N497        N  0.07814894  0.54058000  0.29236926     0.64600
H498        H  0.04239239  0.52904495  0.24683729     0.12400
N499        N  0.01501922  0.45403227  0.30176182     0.61200
H500        H  0.05362449  0.46400708  0.34235160     0.08600
O501        O  0.15370620  0.54409288  0.35463958    -0.40200
O502        O  0.16868809  0.50796233  0.37354598    -0.39400
O503        O  0.04452570  0.47119525  0.41540829    -0.39400
O504        O  0.03290657  0.50911369  0.39893136    -0.37100
O505        O  0.00382812  0.45008891  0.33187265    -0.38000
O506        O  0.02050426  0.43519457  0.28209106    -0.34200
O507        O  0.09264211  0.54314727  0.26508532    -0.35600
O508        O  0.07505871  0.55888409  0.31409893    -0.39900
C509        C  0.24740808  0.37508222  0.33428802    -0.13600
C510        C  0.22830075  0.37384248  0.36099707     0.16800
C511        C  0.21456086  0.35099088  0.36529795     0.03100
C512        C  0.22025508  0.32997651  0.34333714    -0.12100
C513        C  0.23929570  0.33135451  0.31664995    -0.03100
C514        C  0.25277932  0.35418255  0.31194879     0.02300
C515        C  0.22182172  0.39704416  0.38219292     0.09200
N516        N  0.19497361  0.34874982  0.39212823     0.65500
H517        H  0.20977115  0.31248091  0.34707789     0.18400
N518        N  0.27116205  0.35669700  0.28344135     0.76000
H519        H  0.25756177  0.39268242  0.32979857     0.10000
C520        C  0.24003010  0.41023793  0.40322744     0.03700
C521        C  0.23329765  0.43230870  0.42225040    -0.05100
C522        C  0.20842413  0.44155332  0.42120619    -0.23400
C523        C  0.19039034  0.42862865  0.39910836     0.12900
C524        C  0.19728011  0.40678337  0.37986878    -0.12600
N525        N  0.26513321  0.40072975  0.40704852     0.64600
H526        H  0.24739022  0.44154755  0.43928789     0.12400
N527        N  0.16489316  0.43724536  0.39593560     0.61200
H528        H  0.18329668  0.39738873  0.36282401     0.08600
O529        O  0.26401939  0.35875210  0.25047146    -0.40200
O530        O  0.29407616  0.36045221  0.29151943    -0.39400
O531        O  0.17216060  0.34829178  0.38193672    -0.39400
O532        O  0.20050811  0.34251252  0.42462933    -0.37100
O533        O  0.15907827  0.45249384  0.37061278    -0.38000
O534        O  0.14760740  0.42618886  0.41375257    -0.34200
O535        O  0.28337275  0.41252790  0.39255216    -0.35600
O536        O  0.26948846  0.38311030  0.42961308    -0.39900
C537        C  0.98104142  0.41631129  0.12014345    -0.13600
C538        C  0.99964626  0.41184828  0.14684921     0.16800
C539        C  0.01687499  0.39184690  0.14209877     0.03100
C540        C  0.01590015  0.37750026  0.10986251    -0.12100
C541        C  0.99733483  0.38208951  0.08318130    -0.03100
C542        C  0.97957844  0.40140616  0.08858598     0.02300
C543        C  0.00152420  0.42971011  0.17779717     0.09200
N544        N  0.03469845  0.38533615  0.17019271     0.65500
H545        H  0.02919256  0.36217219  0.10608046     0.18400
N546        N  0.96115688  0.40725446  0.06116046     0.76000
H547        H  0.96793317  0.43185080  0.12347107     0.10000
C548        C  0.02243025  0.44588351  0.18185009     0.03700
C549        C  0.02135875  0.46566791  0.20704030    -0.05100
C550        C  0.99939828  0.47060815  0.22816551    -0.23400
C551        C  0.97986690  0.45155463  0.22760950     0.12900
C552        C  0.98097968  0.43212601  0.20148513    -0.12600
N553        N  0.04400612  0.44395012  0.15839324     0.64600
H554        H  0.03715077  0.47881128  0.20765291     0.12400
N555        N  0.95951537  0.45013700  0.25359356     0.61200
H556        H  0.96555125  0.41859110  0.19962677     0.08600
O557        O  0.96430371  0.42653797  0.04115612    -0.40200
O558        O  0.93970021  0.39676453  0.06237852    -0.39400
O559        O  0.02686414  0.37917297  0.20171844    -0.39400
O560        O  0.05753429  0.38152469  0.16196292    -0.37100
O561        O  0.96424189  0.44375810  0.28625072    -0.38000
O562        O  0.93721297  0.44706214  0.24195437    -0.34200
O563        O  0.04225420  0.45045369  0.12510808    -0.35600
O564        O  0.06557484  0.44037073  0.17228393    -0.39900
C565        C  0.98107492  0.41917017  0.88080011    -0.13600
C566        C  0.00099457  0.41827596  0.85540612     0.16800
C567        C  0.02108454  0.40137211  0.86171745     0.03100
C568        C  0.02085802  0.38570073  0.89271960    -0.12100
C569        C  0.00078480  0.38625329  0.91794934    -0.03100
C570        C  0.98069321  0.40332932  0.91171014     0.02300
C571        C  0.00170964  0.43685436  0.82467895     0.09200
N572        N  0.04173543  0.39963283  0.83659367     0.65500
H573        H  0.03640393  0.37268224  0.89662899     0.18400
N574        N  0.96032866  0.40573186  0.93718920     0.76000
H575        H  0.96602206  0.43279074  0.87721105     0.10000
C576        C  0.98103803  0.44026131  0.80093315     0.03700
C577        C  0.98125333  0.46005158  0.77531500    -0.05100
C578        C  0.00212662  0.47675689  0.77137180    -0.23400
C579        C  0.02289105  0.47306746  0.79613522     0.12900
C580        C  0.02237008  0.45331371  0.82183250    -0.12600
N581        N  0.95929033  0.42412389  0.80306648     0.64600
H582        H  0.96406762  0.46281351  0.75980979     0.12400
N583        N  0.04407703  0.49002081  0.79783902     0.61200
H584        H  0.03793113  0.45161934  0.84107310     0.08600
O585        O  0.93930799  0.39540793  0.93020746    -0.40200
O586        O  0.96169591  0.42221764  0.96214837    -0.39400
O587        O  0.06368382  0.40589737  0.84688756    -0.39400
O588        O  0.03884193  0.38791183  0.80669723    -0.37100
O589        O  0.04555400  0.50492748  0.82483146    -0.38000
O590        O  0.06433674  0.48373721  0.78213073    -0.34200
O591        O  0.93820979  0.43317142  0.81233626    -0.35600
O592        O  0.96036267  0.40185852  0.79069121    -0.39900
C593        C  0.09827749  0.26192670  0.09120089    -0.13600
C594        C  0.10728301  0.27963407  0.11679530     0.16800
C595        C  0.09417882  0.30246095  0.12157258     0.03100
C596        C  0.07284848  0.30767052  0.10011064    -0.12100
C597        C  0.06419774  0.29051745  0.07327076    -0.03100
C598        C  0.07686671  0.26708459  0.06952966     0.02300
C599        C  0.13122718  0.27490253  0.13681487     0.09200
N600        N  0.10301111  0.32103273  0.14709705     0.65500
H601        H  0.06354483  0.32573143  0.10365679     0.18400
N602        N  0.06916434  0.24890559  0.04264833     0.76000
H603        H  0.10831071  0.24429075  0.08737453     0.10000
C604        C  0.13155356  0.26239646  0.17103706     0.03700
C605        C  0.15453508  0.25903798  0.18972319    -0.05100
C606        C  0.17733615  0.26779965  0.17453359    -0.23400
C607        C  0.17705002  0.27972952  0.13989595     0.12900
C608        C  0.15405713  0.28339232  0.12146345    -0.12600
N609        N  0.10870991  0.25295968  0.18698262     0.64600
H610        H  0.15462931  0.24960811  0.21619086     0.12400
N611        N  0.20003824  0.28799625  0.12308391     0.61200
H612        H  0.15399756  0.29282260  0.09498898     0.08600
O613        O  0.05265055  0.23253342  0.05084032    -0.40200
O614        O  0.08212324  0.24611439  0.01388359    -0.39400
O615        O  0.11932749  0.33712593  0.13710786    -0.39400
O616        O  0.09174637  0.32384138  0.17732780    -0.37100
O617        O  0.20563235  0.31124283  0.12256251    -0.38000
O618        O  0.21300226  0.27257110  0.10467736    -0.34200
O619        O  0.10442733  0.22943855  0.18754201    -0.35600
O620        O  0.09456292  0.26767135  0.20475027    -0.39900
C621        C  0.00005439  0.56522165  0.20742599    -0.13600
C622        C  0.00207723  0.56037679  0.16981284     0.16800
C623        C  0.00127108  0.53529947  0.15750797     0.03100
C624        C  0.99892748  0.51542541  0.18264165    -0.12100
C625        C  0.99907493  0.51943139  0.22125358    -0.03100
C626        C  0.99827645  0.54531654  0.23310465     0.02300
C627        C  0.00356416  0.58143966  0.14293687     0.09200
N628        N  0.00318042  0.52966144  0.11920898     0.65500
H629        H  0.99670657  0.49687792  0.17078993     0.18400
N630        N  0.99522596  0.55195688  0.27095317     0.76000
H631        H  0.99967735  0.58464161  0.21696183     0.10000
C632        C  0.98154988  0.59067491  0.12606232     0.03700
C633        C  0.98341730  0.60770978  0.09672639    -0.05100
C634        C  0.00705662  0.61616435  0.08371039    -0.23400
C635        C  0.02917113  0.60760267  0.10171735     0.12900
C636        C  0.02722196  0.59028957  0.13100503    -0.12600
N637        N  0.95712463  0.58246796  0.13801029     0.64600
H638        H  0.96611566  0.61422097  0.08392692     0.12400
N639        N  0.05373264  0.61513851  0.08945767     0.61200
H640        H  0.04428161  0.58300378  0.14361335     0.08600
O641        O  0.97322770  0.55614717  0.28276958    -0.40200
O642        O  0.01377200  0.56125208  0.28821115    -0.39400
O643        O  0.02455486  0.52519306  0.10539477    -0.39400
O644        O  0.98345162  0.52536919  0.10067327    -0.37100
O645        O  0.06687552  0.63003743  0.10878430    -0.38000
O646        O  0.06381437  0.60376934  0.06281895    -0.34200
O647        O  0.94565256  0.59492074  0.16231849    -0.35600
O648        O  0.94533724  0.56576939  0.11999551    -0.39900
C649        C  0.02008344  0.57897052  0.88372936    -0.13600
C650        C  0.00028205  0.58033881  0.85812314     0.16800
C651        C  0.98060902  0.59771297  0.86384988     0.03100
C652        C  0.98120623  0.61356882  0.89451557    -0.12100
C653        C  0.00113525  0.61257635  0.92003107    -0.03100
C654        C  0.02070139  0.59482906  0.91449137     0.02300
C655        C  0.99947089  0.56204711  0.82735969     0.09200
N656        N  0.96018516  0.59987857  0.83828956     0.65500
H657        H  0.96617063  0.62711294  0.89791794     0.18400
N658        N  0.04089373  0.59202313  0.94029328     0.76000
H659        H  0.03488610  0.56506986  0.88026621     0.10000
C660        C  0.01983380  0.55947924  0.80305139     0.03700
C661        C  0.01979963  0.53992244  0.77724865    -0.05100
C662        C  0.99915508  0.52296069  0.77332069    -0.23400
C663        C  0.97878543  0.52564732  0.79896645     0.12900
C664        C  0.97923530  0.54507407  0.82504070    -0.12600
N665        N  0.04085630  0.57659180  0.80435979     0.64600
H666        H  0.03676092  0.53783908  0.76111092     0.12400
N667        N  0.95807736  0.50812108  0.80094447     0.61200
H668        H  0.96395467  0.54625040  0.84476035     0.08600
O669        O  0.06229413  0.60148435  0.93328104    -0.40200
O670        O  0.03863832  0.57650352  0.96649698    -0.39400
O671        O  0.93824545  0.59294330  0.84760167    -0.39400
O672        O  0.96318481  0.61254797  0.80918510    -0.37100
O673        O  0.93759707  0.51365753  0.78510758    -0.38000
O674        O  0.95718189  0.49316237  0.82800885    -0.34200
O675        O  0.06266752  0.56841992  0.81170354    -0.35600
O676        O  0.03819100  0.59914210  0.79357264    -0.39900
C677        C  0.95478448  0.48063234  0.66631456    -0.13600
C678        C  0.94024323  0.50240106  0.66161134     0.16800
C679        C  0.94293718  0.52223186  0.68711645     0.03100
C680        C  0.96076532  0.52037707  0.71544707    -0.12100
C681        C  0.97713932  0.49936732  0.71891194    -0.03100
C682        C  0.97368194  0.47918992  0.69304962     0.02300
C683        C  0.92238270  0.50373748  0.63000184     0.09200
N684        N  0.92932559  0.54539739  0.68292857     0.65500
H685        H  0.96317136  0.53696123  0.73241893     0.18400
N686        N  0.98994945  0.45760777  0.69140254     0.76000
H687        H  0.95220096  0.46471139  0.64793836     0.10000
C688        C  0.92957371  0.49566039  0.59439570     0.03700
C689        C  0.91152405  0.49436112  0.56632177    -0.05100
C690        C  0.88672439  0.50231150  0.57242910    -0.23400
C691        C  0.87965783  0.51118942  0.60731942     0.12900
C692        C  0.89732875  0.51143529  0.63590691    -0.12600
N693        N  0.95525562  0.48951484  0.58598800     0.64600
H694        H  0.91711584  0.48800322  0.53923557     0.12400
N695        N  0.85429539  0.51904713  0.61441530     0.61200
H696        H  0.89115298  0.51689078  0.66309519     0.08600
O697        O  0.00535369  0.45636991  0.66503337    -0.40200
O698        O  0.98241247  0.43706806  0.70548082    -0.39400
O699        O  0.91474968  0.55272784  0.70813284    -0.39400
O700        O  0.93464829  0.56020913  0.65678403    -0.37100
O701        O  0.84981546  0.54198261  0.62137476    -0.38000
O702        O  0.83616849  0.50365926  0.61035629    -0.34200
O703        O  0.96052809  0.46815375  0.57260977    -0.35600
O704        O  0.97213998  0.50644406  0.58765634    -0.39900
C705        C  0.90416071  0.47540670  0.35972201    -0.13600
C706        C  0.91100768  0.49933108  0.34614541     0.16800
C707        C  0.90103603  0.52113972  0.36248625     0.03100
C708        C  0.88578610  0.51885605  0.39359748    -0.12100
C709        C  0.87944589  0.49498322  0.40821496    -0.03100
C710        C  0.88825870  0.47302139  0.39031106     0.02300
C711        C  0.93275632  0.50126253  0.32107816     0.09200
N712        N  0.90707896  0.54574965  0.34856011     0.65500
H713        H  0.87908472  0.53595762  0.40661753     0.18400
N714        N  0.88297472  0.44830447  0.40444386     0.76000
H715        H  0.91230149  0.45855523  0.34769586     0.10000
C716        C  0.95717171  0.50159723  0.33585400     0.03700
C717        C  0.97801026  0.50139998  0.31270377    -0.05100
C718        C  0.97549057  0.49974302  0.27401640    -0.23400
C719        C  0.95052435  0.50289265  0.25936466     0.12900
C720        C  0.92950801  0.50289700  0.28302013    -0.12600
N721        N  0.96111475  0.50205767  0.37473254     0.64600
H722        H  0.99609806  0.50289729  0.32612587     0.12400
N723        N  0.94615032  0.50751868  0.22106897     0.61200
H724        H  0.91062256  0.50422901  0.27163034     0.08600
O725        O  0.89839956  0.43806205  0.42630358    -0.40200
O726        O  0.86567050  0.43509252  0.39006846    -0.39400
O727        O  0.89430742  0.55477093  0.32235895    -0.39400
O728        O  0.92198426  0.55997108  0.36619369    -0.37100
O729        O  0.94011464  0.48950630  0.20006765    -0.38000
O730        O  0.94223624  0.52992841  0.21047674    -0.34200
O731        O  0.96589712  0.48174752  0.39160950    -0.35600
O732        O  0.96409145  0.52297893  0.39088917    -0.39900
C733        C  0.52755728  0.08098788  0.62319322    -0.13600
C734        C  0.50546132  0.07558743  0.64295173     0.16800
C735        C  0.48317930  0.08890777  0.63441552     0.03100
C736        C  0.48317967  0.10677449  0.60571155    -0.12100
C737        C  0.50515901  0.11173472  0.58510402    -0.03100
C738        C  0.52765138  0.09887317  0.59465732     0.02300
C739        C  0.50569601  0.05458516  0.67024823     0.09200
N740        N  0.46018370  0.08375059  0.65365904     0.65500
H741        H  0.46578394  0.11657810  0.59921386     0.18400
N742        N  0.55050924  0.10279254  0.57455353     0.76000
H743        H  0.54476301  0.07077063  0.62943103     0.10000
C744        C  0.50691511  0.02946135  0.65831320     0.03700
C745        C  0.50708189  0.00963673  0.68373907    -0.05100
C746        C  0.50716283  0.01372208  0.72240428    -0.23400
C747        C  0.50548334  0.03961951  0.73404876     0.12900
C748        C  0.50487440  0.05945179  0.70802104    -0.12600
N749        N  0.50717477  0.02366776  0.61996232     0.64600
H750        H  0.50599889  0.99098823  0.67191444     0.12400
N751        N  0.50298791  0.04633827  0.77195941     0.61200
H752        H  0.50355842  0.07884930  0.71744959     0.08600
O753        O  0.55558448  0.08856451  0.54778227    -0.40200
O754        O  0.56747076  0.11710841  0.58750426    -0.39400
O755        O  0.45019434  0.10079615  0.67296983    -0.39400
O756        O  0.44804761  0.06362385  0.64712634    -0.37100
O757        O  0.52181214  0.05565394  0.78854436    -0.38000
O758        O  0.48119158  0.05091313  0.78424428    -0.34200
O759        O  0.52764985  0.01760275  0.60466640    -0.35600
O760        O  0.48660033  0.02122455  0.60271179    -0.39900
C761        C  0.49588211  0.06782021  0.29186976    -0.13600
C762        C  0.49312150  0.06223642  0.32927403     0.16800
C763        C  0.49160047  0.03693662  0.34031039     0.03100
C764        C  0.49266296  0.01764494  0.31432903    -0.12100
C765        C  0.49328420  0.02241730  0.27589538    -0.03100
C766        C  0.49631048  0.04843968  0.26521333     0.02300
C767        C  0.49388864  0.08243732  0.35750468     0.09200
N768        N  0.48930663  0.03044096  0.37832771     0.65500
H769        H  0.49360149  0.99889503  0.32568797     0.18400
N770        N  0.50264624  0.05555584  0.22834875     0.76000
H771        H  0.49842553  0.08733590  0.28334998     0.10000
C772        C  0.51686658  0.08949234  0.37417808     0.03700
C773        C  0.51686038  0.10550736  0.40481153    -0.05100
C774        C  0.49415993  0.11502275  0.41939023    -0.23400
C775        C  0.47115756  0.10863940  0.40158187     0.12900
C776        C  0.47122509  0.09223977  0.37122084    -0.12600
N777        N  0.54035525  0.08005631  0.36070361     0.64600
H778        H  0.53483806  0.11040611  0.41729381     0.12400
N779        N  0.44751160  0.11814239  0.41431320     0.61200
H780        H  0.45342793  0.08668467  0.35874784     0.08600
O781        O  0.52545722  0.06042413  0.22089521    -0.40200
O782        O  0.48571421  0.06390719  0.20720713    -0.39400
O783        O  0.46765454  0.02892245  0.39267868    -0.39400
O784        O  0.50823091  0.02213386  0.39561312    -0.37100
O785        O  0.43905783  0.13861448  0.40138726    -0.38000
O786        O  0.43337195  0.10425066  0.43373893    -0.34200
O787        O  0.55318850  0.09327356  0.33857213    -0.35600
O788        O  0.55016709  0.06082549  0.37545848    -0.39900
C789        C  0.37806151  0.25040677  0.33534691    -0.13600
C790        C  0.37866524  0.22867259  0.35763718     0.16800
C791        C  0.35729898  0.21249291  0.35822771     0.03100
C792        C  0.33591277  0.21828638  0.33705135    -0.12100
C793        C  0.33527268  0.24004948  0.31492605    -0.03100
C794        C  0.35660131  0.25618332  0.31414416     0.02300
C795        C  0.40051653  0.22428819  0.38280025     0.09200
N796        N  0.35719962  0.18989001  0.37989403     0.65500
H797        H  0.31970158  0.20566328  0.33773071     0.18400
N798        N  0.35666410  0.27852234  0.29198120     0.76000
H799        H  0.39407388  0.26327636  0.33508538     0.10000
C800        C  0.42549695  0.22099946  0.36993671     0.03700
C801        C  0.44522313  0.21601750  0.39497872    -0.05100
C802        C  0.44035133  0.21409615  0.43279031    -0.23400
C803        C  0.41558854  0.21847906  0.44558908     0.12900
C804        C  0.39608131  0.22362028  0.42074044    -0.12600
N805        N  0.43083955  0.22124064  0.33148454     0.64600
H806        H  0.46407330  0.21239136  0.38470826     0.12400
N807        N  0.41003625  0.21814497  0.48400817     0.61200
H808        H  0.37722662  0.22698129  0.43119382     0.08600
O809        O  0.36629619  0.27796415  0.26031075    -0.40200
O810        O  0.35095894  0.29951903  0.30612483    -0.39400
O811        O  0.34394280  0.18873695  0.40864590    -0.39400
O812        O  0.36684023  0.16994881  0.36717284    -0.37100
O813        O  0.41066284  0.23858947  0.50183692    -0.38000
O814        O  0.39977723  0.19884092  0.49814045    -0.34200
O815        O  0.44126868  0.24040880  0.31722579    -0.35600
O816        O  0.42920161  0.20096426  0.31333834    -0.39900
C817        C  0.41945368  0.01668361  0.10706066    -0.13600
C818        C  0.41754819  0.99547575  0.13019051     0.16800
C819        C  0.40097987  0.97549501  0.12047386     0.03100
C820        C  0.38677671  0.97719242  0.08799196    -0.12100
C821        C  0.38822379  0.99874750  0.06543483    -0.03100
C822        C  0.40511814  0.01841825  0.07479376     0.02300
C823        C  0.43391893  0.99456211  0.16335681     0.09200
N824        N  0.39725187  0.95413079  0.14418923     0.65500
H825        H  0.37349920  0.96216699  0.08139103     0.18400
N826        N  0.40885340  0.03963754  0.05090636     0.76000
H827        H  0.43264009  0.03177402  0.11373650     0.10000
C828        C  0.45206585  0.97556472  0.16827945     0.03700
C829        C  0.46884577  0.97707655  0.19782473    -0.05100
C830        C  0.46949493  0.99811531  0.22216935    -0.23400
C831        C  0.44918832  0.01585805  0.21915819     0.12900
C832        C  0.43222868  0.01397165  0.18940753    -0.12600
N833        N  0.45550046  0.95599145  0.14159292     0.64600
H834        H  0.48347276  0.96282960  0.19938924     0.12400
N835        N  0.44427936  0.03514250  0.24590494     0.61200
H836        H  0.41738503  0.02791128  0.18651937     0.08600
O837        O  0.41888555  0.03635440  0.01985092    -0.40200
O838        O  0.40638485  0.06182111  0.06313590    -0.39400
O839        O  0.38905863  0.95744317  0.17636009    -0.39400
O840        O  0.39791275  0.93200438  0.13117726    -0.37100
O841        O  0.43889119  0.05720706  0.23514629    -0.38000
O842        O  0.43782227  0.02875605  0.27792853    -0.34200
O843        O  0.46317043  0.96168026  0.10979718    -0.35600
O844        O  0.45570988  0.93311748  0.15169892    -0.39900
C845        C  0.41061196  0.97402114  0.86184457    -0.13600
C846        C  0.41542850  0.99648098  0.84240165     0.16800
C847        C  0.40211415  0.01855650  0.85147360     0.03100
C848        C  0.38536896  0.01824480  0.88116104    -0.12100
C849        C  0.38133941  0.99608975  0.90177291    -0.03100
C850        C  0.39374878  0.97363369  0.89144515     0.02300
C851        C  0.43778125  0.99748866  0.81826606     0.09200
N852        N  0.40641919  0.04170907  0.83206734     0.65500
H853        H  0.37593280  0.03558204  0.88872354     0.18400
N854        N  0.39137170  0.95100946  0.91281473     0.76000
H855        H  0.42128056  0.95711527  0.85550461     0.10000
C856        C  0.46182381  0.99828926  0.83415731     0.03700
C857        C  0.48315879  0.99702233  0.81210840    -0.05100
C858        C  0.48169784  0.99403987  0.77337953    -0.23400
C859        C  0.45709149  0.99705740  0.75737563     0.12900
C860        C  0.43549859  0.99779881  0.77997627    -0.12600
N861        N  0.46490810  0.00109128  0.87299764     0.64600
H862        H  0.50083556  0.99931711  0.82644642     0.12400
N863        N  0.45367140  0.00194909  0.71897271     0.61200
H864        H  0.41691386  0.99906053  0.76756460     0.08600
O865        O  0.40244433  0.94945990  0.94347794    -0.40200
O866        O  0.38182543  0.93138650  0.89861766    -0.39400
O867        O  0.39116146  0.04835408  0.80721226    -0.39400
O868        O  0.42219141  0.05755842  0.84441722    -0.37100
O869        O  0.44455115  0.98493831  0.69855354    -0.38000
O870        O  0.45203757  0.02468318  0.70855560    -0.34200
O871        O  0.46950330  0.98190901  0.89256339    -0.35600
O872        O  0.46763164  0.02292910  0.88648985    -0.39900
C873        C  0.28517666  0.15549781  0.11739871    -0.13600
C874        C  0.27871192  0.13190497  0.13266569     0.16800
C875        C  0.26890404  0.13087658  0.16863827     0.03100
C876        C  0.26557771  0.15330477  0.18863504    -0.12100
C877        C  0.27219913  0.17682506  0.17339340    -0.03100
C878        C  0.28199102  0.17787119  0.13748804     0.02300
C879        C  0.28382350  0.10854401  0.11140704     0.09200
N880        N  0.26322966  0.10713651  0.18567887     0.65500
H881        H  0.25804124  0.15238725  0.21627445     0.18400
N882        N  0.28894644  0.20157790  0.12135190     0.76000
H883        H  0.29294910  0.15647997  0.08989828     0.10000
C884        C  0.26435219  0.09441308  0.09442841     0.03700
C885        C  0.27033630  0.07304789  0.07316996    -0.05100
C886        C  0.29560790  0.06588081  0.06785394    -0.23400
C887        C  0.31492135  0.07969050  0.08588116     0.12900
C888        C  0.30890414  0.10076278  0.10734835    -0.12600
N889        N  0.23868412  0.10259604  0.09633477     0.64600
H890        H  0.25532973  0.06303510  0.05890946     0.12400
N891        N  0.34083957  0.07261679  0.08243557     0.61200
H892        H  0.32396868  0.11134491  0.12060271     0.08600
O893        O  0.27311477  0.21364069  0.10226215    -0.40200
O894        O  0.30993308  0.21166174  0.12925086    -0.39400
O895        O  0.28082453  0.09439071  0.19993603    -0.39400
O896        O  0.24054724  0.10116046  0.19215527    -0.37100
O897        O  0.35549752  0.08574980  0.06271928    -0.38000
O898        O  0.34986348  0.05594014  0.10350574    -0.34200
O899        O  0.23118205  0.12000945  0.07524300    -0.35600
O900        O  0.22268935  0.08953871  0.11383795    -0.39900
C901        C  0.56402564  0.00407172  0.21455775    -0.13600
C902        C  0.56106916  0.00408518  0.17627043     0.16800
C903        C  0.53680979  0.00683329  0.16146473     0.03100
C904        C  0.51579077  0.00694362  0.18447350    -0.12100
C905        C  0.51777858  0.00350896  0.22312943    -0.03100
C906        C  0.54282200  0.00477030  0.23804893     0.02300
C907        C  0.58299749  0.00184764  0.15112345     0.09200
N908        N  0.53320050  0.00976582  0.12273430     0.65500
H909        H  0.49791454  0.01037110  0.17111126     0.18400
N910        N  0.54713103  0.00836012  0.27655343     0.76000
H911        H  0.58286394  0.00383377  0.22627491     0.10000
C912        C  0.59446169  0.02358540  0.13615646     0.03700
C913        C  0.61083739  0.02138408  0.10615697    -0.05100
C914        C  0.61724837  0.99761237  0.09153717    -0.23400
C915        C  0.60668764  0.97564675  0.10795417     0.12900
C916        C  0.58931366  0.97800445  0.13695068    -0.12600
N917        N  0.58929886  0.04809150  0.15088006     0.64600
H918        H  0.61845757  0.03854603  0.09411534     0.12400
N919        N  0.61347449  0.95086829  0.09583794     0.61200
H920        H  0.58039056  0.96115627  0.14811462     0.08600
O921        O  0.55329862  0.03010333  0.28789215    -0.40200
O922        O  0.55089833  0.98951733  0.29713983    -0.39400
O923        O  0.52420570  0.99167921  0.10417911    -0.39400
O924        O  0.53483420  0.03149934  0.10845237    -0.37100
O925        O  0.63339825  0.94075490  0.10791463    -0.38000
O926        O  0.59774292  0.93765282  0.07806237    -0.34200
O927        O  0.59819730  0.05412389  0.18186141    -0.35600
O928        O  0.57953609  0.06489771  0.13075696    -0.39900
C929        C  0.60635328  0.97490901  0.86401439    -0.13600
C930        C  0.58791847  0.99370135  0.86047124     0.16800
C931        C  0.58515033  0.01175951  0.88860210     0.03100
C932        C  0.60093687  0.01085304  0.91952990    -0.12100
C933        C  0.61901106  0.99162371  0.92374043    -0.03100
C934        C  0.62176480  0.97358968  0.89526865     0.02300
C935        C  0.56973892  0.99213892  0.82959949     0.09200
N936        N  0.56530089  0.03002974  0.88736501     0.65500
H937        H  0.59836431  0.02478249  0.94100412     0.18400
N938        N  0.64015085  0.95388445  0.89738579     0.76000
H939        H  0.60835450  0.96075613  0.84269629     0.10000
C940        C  0.56865821  0.01023976  0.80133845     0.03700
C941        C  0.54950800  0.00873929  0.77460311    -0.05100
C942        C  0.53029504  0.98997684  0.77623663    -0.23400
C943        C  0.53388218  0.97006724  0.80261105     0.12900
C944        C  0.55295440  0.97181353  0.82902761    -0.12600
N945        N  0.58727003  0.02986013  0.79889061     0.64600
H946        H  0.54994597  0.02260544  0.75280584     0.12400
N947        N  0.51764448  0.94841997  0.80474919     0.61200
H948        H  0.55433428  0.95723857  0.84996178     0.08600
O949        O  0.66000000  0.95541715  0.87831606    -0.40200
O950        O  0.63440363  0.93310548  0.91246128    -0.39400
O951        O  0.54277314  0.02300743  0.89281873    -0.39400
O952        O  0.57066106  0.05333298  0.88799304    -0.37100
O953        O  0.50441350  0.94542737  0.83329353    -0.38000
O954        O  0.52332342  0.92909953  0.78621704    -0.34200
O955        O  0.60838561  0.02520607  0.78439331    -0.35600
O956        O  0.58115457  0.05250350  0.80512331    -0.39900
C957        C  0.50042725  0.91886352  0.61071187    -0.13600
C958        C  0.51379105  0.91013026  0.64145405     0.16800
C959        C  0.52773886  0.88755398  0.63883641     0.03100
C960        C  0.52817762  0.87423300  0.60553032    -0.12100
C961        C  0.51450858  0.88280894  0.57477771    -0.03100
C962        C  0.50061962  0.90545761  0.57759887     0.02300
C963        C  0.51360695  0.92593204  0.67500643     0.09200
N964        N  0.54043616  0.87725941  0.67012554     0.65500
H965        H  0.53842755  0.85653848  0.60419349     0.18400
N966        N  0.48726169  0.91554616  0.54677947     0.76000
H967        H  0.48999809  0.93644436  0.61234053     0.10000
C968        C  0.53412261  0.94165792  0.68363492     0.03700
C969        C  0.53128837  0.96064058  0.70987922    -0.05100
C970        C  0.50802287  0.96498400  0.72835404    -0.23400
C971        C  0.48853789  0.94622046  0.72326939     0.12900
C972        C  0.49143695  0.92775896  0.69567102    -0.12600
N973        N  0.55726771  0.94020240  0.66355406     0.64600
H974        H  0.54697073  0.97368161  0.71342240     0.12400
N975        N  0.46628610  0.94436679  0.74572247     0.61200
H976        H  0.47610599  0.91462589  0.69005755     0.08600
O977        O  0.49870873  0.92974313  0.52431456    -0.40200
O978        O  0.46345138  0.91416456  0.54580361    -0.39400
O979        O  0.52816613  0.86367193  0.69246921    -0.39400
O980        O  0.56427494  0.87669349  0.67069180    -0.37100
O981        O  0.44531235  0.93915429  0.73086072    -0.38000
O982        O  0.46855135  0.94049236  0.77973304    -0.34200
O983        O  0.55941054  0.95196570  0.63350435    -0.35600
O984        O  0.57680463  0.93176003  0.67918326    -0.39900
C985        C  0.47593308  0.94419899  0.31414995    -0.13600
C986        C  0.49827384  0.93041888  0.31490810     0.16800
C987        C  0.51698534  0.93568097  0.28867439     0.03100
C988        C  0.51420848  0.95642983  0.26494284    -0.12100
C989        C  0.49367576  0.97344459  0.26823969    -0.03100
C990        C  0.47299507  0.96493126  0.29061769     0.02300
C991        C  0.50181730  0.91171304  0.34476417     0.09200
N992        N  0.53879772  0.91998863  0.28554544     0.65500
H993        H  0.52875675  0.95910145  0.24458642     0.18400
N994        N  0.44933351  0.97782065  0.29199569     0.76000
H995        H  0.46083150  0.93936143  0.33305419     0.10000
C996        C  0.51903969  0.91632268  0.37365009     0.03700
C997        C  0.52001906  0.89967436  0.40363493    -0.05100
C998        C  0.50347866  0.87886158  0.40608454    -0.23400
C999        C  0.48664812  0.87397154  0.37665471     0.12900
C1000       C  0.48589384  0.89046063  0.34647009    -0.12600
N1001       N  0.53419981  0.93884942  0.37433817     0.64600
H1002       H  0.53285619  0.90385624  0.42608299     0.12400
N1003       N  0.47063619  0.85206738  0.37656022     0.61200
H1004       H  0.47261109  0.88682320  0.32436679     0.08600
O1005       O  0.44235458  0.98713510  0.32223213    -0.40200
O1006       O  0.43260439  0.97201716  0.26867681    -0.39400
O1007       O  0.53736860  0.89974055  0.26730211    -0.39400
O1008       O  0.56023546  0.92867709  0.29429715    -0.37100
O1009       O  0.44698282  0.85459954  0.37881944    -0.38000
O1010       O  0.47971067  0.83080643  0.36814142    -0.34200
O1011       O  0.52371019  0.96013226  0.37768147    -0.35600
O1012       O  0.55785915  0.93723200  0.37805608    -0.39900
C1013       C  0.78360277  0.34985327  0.36771514    -0.13600
C1014       C  0.76829934  0.37086917  0.35996103     0.16800
C1015       C  0.75219431  0.37004798  0.32901517     0.03100
C1016       C  0.75098689  0.34807616  0.30733293    -0.12100
C1017       C  0.76580584  0.32688208  0.31587693    -0.03100
C1018       C  0.78250718  0.32804079  0.34597900     0.02300
C1019       C  0.77031110  0.39360715  0.38394699     0.09200
N1020       N  0.73627584  0.39097393  0.32016650     0.65500
H1021       H  0.73797012  0.34727065  0.28434053     0.18400
N1022       N  0.79813999  0.30695807  0.35510775     0.76000
H1023       H  0.79660304  0.35043318  0.39074652     0.10000
C1024       C  0.76721655  0.39149209  0.42237067     0.03700
C1025       C  0.77360344  0.41185673  0.44515778    -0.05100
C1026       C  0.78238673  0.43472385  0.43032549    -0.23400
C1027       C  0.78433775  0.43743883  0.39196914     0.12900
C1028       C  0.77837354  0.41688119  0.36903693    -0.12600
N1029       N  0.75786799  0.36862893  0.43862514     0.64600
H1030       H  0.77212918  0.40967135  0.47471235     0.12400
N1031       N  0.79431094  0.46019882  0.37624646     0.61200
H1032       H  0.78132879  0.41867942  0.33969872     0.08600
O1033       O  0.81920227  0.30432723  0.33938900    -0.40200
O1034       O  0.79263919  0.29317763  0.38232481    -0.39400
O1035       O  0.74031394  0.40372084  0.29139239    -0.39400
O1036       O  0.71652987  0.39485702  0.33867400    -0.37100
O1037       O  0.81784071  0.46272259  0.37182105    -0.38000
O1038       O  0.77951495  0.47686040  0.36396211    -0.34200
O1039       O  0.77167108  0.35620879  0.46040480    -0.35600
O1040       O  0.73473409  0.36303476  0.43570146    -0.39900
C1041       C  0.65419217  0.21129245  0.37454105    -0.13600
C1042       C  0.63121844  0.21979696  0.35971021     0.16800
C1043       C  0.63130711  0.23231833  0.32546601     0.03100
C1044       C  0.65421758  0.23654687  0.30695107    -0.12100
C1045       C  0.67716853  0.22813963  0.32188117    -0.03100
C1046       C  0.67705140  0.21524714  0.35580084    -0.02100
C1047       C  0.60742405  0.21568237  0.38061661     0.09200
N1048       N  0.60826090  0.24082326  0.30922467     0.65500
H1049       H  0.65411704  0.24629552  0.28072699     0.18400
N1050       N  0.70006144  0.20601061  0.37132135     0.76000
H1051       H  0.65433501  0.20152197  0.40074873     0.10000
C1052       C  0.59194989  0.19440027  0.37411921     0.03700
C1053       C  0.57050437  0.19009871  0.39594821    -0.05100
C1054       C  0.56406285  0.20663689  0.42472182    -0.23400
C1055       C  0.57919306  0.22848266  0.43031749     0.12900
C1056       C  0.60066390  0.23274716  0.40836514    -0.12600
N1057       N  0.59848807  0.17632307  0.34660493     0.64600
H1058       H  0.55936633  0.17312614  0.39123869     0.12400
N1059       N  0.57413291  0.24555345  0.45977698     0.61200
H1060       H  0.61249803  0.24916273  0.41361060     0.08600
O1061       O  0.70722983  0.18379095  0.36433567    -0.40200
O1062       O  0.71433080  0.22072166  0.38921971    -0.39400
O1063       O  0.60222715  0.26383960  0.31157801    -0.39400
O1064       O  0.59645672  0.22656093  0.28726554    -0.37100
O1065       O  0.58734585  0.24464950  0.48864656    -0.38000
O1066       O  0.55936866  0.26392123  0.45469100    -0.34200
O1067       O  0.61504487  0.15985372  0.35345913    -0.35600
O1068       O  0.58496779  0.17417611  0.31817844    -0.39900
C1069       C  0.91475137  0.29699582  0.12593413    -0.13600
C1070       C  0.90515639  0.27230107  0.12656298     0.16800
C1071       C  0.91639853  0.25367840  0.10429261     0.03100
C1072       C  0.93623614  0.26034265  0.08033539    -0.12100
C1073       C  0.94486252  0.28551046  0.07822285    -0.03100
C1074       C  0.93448881  0.30367236  0.10222972     0.02300
C1075       C  0.88153119  0.26728697  0.14717663     0.09200
N1076       N  0.90684712  0.22833289  0.10430007     0.65500
H1077       H  0.94382802  0.24623051  0.06187613     0.18400
N1078       N  0.94351968  0.32920392  0.10227067     0.76000
H1079       H  0.90631111  0.31137818  0.14314907     0.10000
C1080       C  0.88170883  0.25931685  0.18413685     0.03700
C1081       C  0.85878144  0.25578994  0.20286648    -0.05100
C1082       C  0.83560094  0.26038211  0.18531798    -0.23400
C1083       C  0.83547281  0.26842937  0.14840948     0.12900
C1084       C  0.85834773  0.27179427  0.12965299    -0.12600
N1085       N  0.90498557  0.25501312  0.20302677     0.64600
H1086       H  0.85901954  0.24955889  0.23124929     0.12400
N1087       N  0.81223045  0.27339187  0.12978693     0.61200
H1088       H  0.85805503  0.27814734  0.10131867     0.08600
O1089       O  0.96426920  0.33441699  0.11772029    -0.40200
O1090       O  0.92897365  0.34687753  0.09264834    -0.39400
O1091       O  0.88836899  0.22251333  0.08398139    -0.39400
O1092       O  0.91493018  0.21258357  0.12756975    -0.37100
O1093       O  0.80239279  0.25648652  0.10983330    -0.38000
O1094       O  0.80397874  0.29574029  0.12821113    -0.34200
O1095       O  0.91674908  0.27345973  0.21706523    -0.35600
O1096       O  0.91132279  0.23271348  0.21127112    -0.39900
C1097       C  0.70636996  0.09024703  0.12370305    -0.13600
C1098       C  0.73223459  0.09485191  0.12843300     0.16800
C1099       C  0.74975550  0.07801743  0.11274263     0.03100
C1100       C  0.74118410  0.05784762  0.09065886    -0.12100
C1101       C  0.71522048  0.05410083  0.08425412    -0.03100
C1102       C  0.69778059  0.07000614  0.10227244     0.02300
C1103       C  0.74012302  0.11773629  0.14922506     0.09200
N1104       N  0.77627027  0.08180663  0.11778856     0.65500
H1105       H  0.75487193  0.04581490  0.07723519     0.18400
N1106       N  0.67123511  0.06511411  0.10050736     0.76000
H1107       H  0.69271354  0.10253480  0.13674148     0.10000
C1108       C  0.73596638  0.14205978  0.13447116     0.03700
C1109       C  0.74033356  0.16357070  0.15597211    -0.05100
C1110       C  0.74855262  0.16138043  0.19244114    -0.23400
C1111       C  0.75323683  0.13710248  0.20716370     0.12900
C1112       C  0.74916379  0.11547692  0.18538184    -0.12600
N1113       N  0.72692825  0.14514408  0.09773614     0.64600
H1114       H  0.73687899  0.18214651  0.14434536     0.12400
N1115       N  0.76158348  0.13414364  0.24428338     0.61200
H1116       H  0.75210403  0.09686176  0.19715332     0.08600
O1117       O  0.65732264  0.07898712  0.08084368    -0.40200
O1118       O  0.66129264  0.05100825  0.12453109    -0.39400
O1119       O  0.78811220  0.06843256  0.14077593    -0.39400
O1120       O  0.78836642  0.09587264  0.09588215    -0.37100
O1121       O  0.78369914  0.12644398  0.25068164    -0.38000
O1122       O  0.74569332  0.13478791  0.27007768    -0.34200
O1123       O  0.70385438  0.14975317  0.09217813    -0.35600
O1124       O  0.74253210  0.14776244  0.07181256    -0.39900
C1125       C  0.58625987  0.74744404  0.39007603    -0.13600
C1126       C  0.60060025  0.76463390  0.36918662     0.16800
C1127       C  0.59459561  0.79050285  0.37030566     0.03100
C1128       C  0.57500587  0.79896402  0.39277167    -0.12100
C1129       C  0.56093828  0.78206650  0.41476710    -0.03100
C1130       C  0.56633512  0.75585827  0.41244991     0.02300
C1131       C  0.62168100  0.75569890  0.34580392     0.09200
N1132       N  0.60914334  0.80860837  0.35004729     0.65500
H1133       H  0.57143811  0.81913222  0.39381215     0.18400
N1134       N  0.55176772  0.73754721  0.43231709     0.76000
H1135       H  0.59045440  0.72740495  0.38879826     0.10000
C1136       C  0.64454697  0.74724551  0.36132719     0.03700
C1137       C  0.66508510  0.74160114  0.33850568    -0.05100
C1138       C  0.66306912  0.74379133  0.30012507    -0.23400
C1139       C  0.63974468  0.75095096  0.28454457     0.12900
C1140       C  0.61943520  0.75726318  0.30744040    -0.12600
N1141       N  0.64749024  0.74539629  0.40026843     0.64600
H1142       H  0.68289287  0.73604108  0.35079642     0.12400
N1143       N  0.63643538  0.75164684  0.24555652     0.61200
H1144       H  0.60177582  0.76338282  0.29526790     0.08600
O1145       O  0.53095016  0.72991631  0.41934999    -0.40200
O1146       O  0.56130736  0.72629805  0.45958580    -0.39400
O1147       O  0.60030319  0.81806258  0.32090410    -0.39400
O1148       O  0.62925317  0.81749628  0.36368180    -0.37100
O1149       O  0.62976607  0.77190489  0.22996179    -0.38000
O1150       O  0.63697298  0.73131945  0.22740930    -0.34200
O1151       O  0.64573200  0.72408843  0.41581502    -0.35600
O1152       O  0.65520787  0.76430235  0.41830274    -0.39900
C1153       C  0.75643709  0.60628585  0.30374061    -0.13600
C1154       C  0.75964186  0.60970026  0.34174391     0.16800
C1155       C  0.75881590  0.63431851  0.35660268     0.03100
C1156       C  0.75487984  0.65501506  0.33341153    -0.12100
C1157       C  0.75224290  0.65166646  0.29545165    -0.03100
C1158       C  0.75258056  0.62713136  0.28055099     0.02300
C1159       C  0.76674139  0.58795281  0.36504700     0.09200
N1160       N  0.76373139  0.63875383  0.39471956     0.65500
H1161       H  0.75468981  0.67394332  0.34487544     0.18400
N1162       N  0.74903530  0.62325229  0.24205157     0.76000
H1163       H  0.75726538  0.58743856  0.29210244     0.10000
C1164       C  0.75121688  0.57907903  0.39379785     0.03700
C1165       C  0.76060699  0.56109786  0.41864267    -0.05100
C1166       C  0.78531534  0.55170059  0.41525240    -0.23400
C1167       C  0.80032698  0.55995897  0.38530193     0.12900
C1168       C  0.79092461  0.57792798  0.36071672    -0.12600
N1169       N  0.72601460  0.58825872  0.39818022     0.64600
H1170       H  0.74872362  0.55501918  0.44125270     0.12400
N1171       N  0.82542090  0.55085969  0.37980548     0.61200
H1172       H  0.80295940  0.58476016  0.33870014     0.08600
O1173       O  0.76793986  0.62103079  0.22124361    -0.40200
O1174       O  0.72708313  0.62380439  0.22846090    -0.39400
O1175       O  0.78588042  0.63611721  0.40703679    -0.39400
O1176       O  0.74740360  0.64978501  0.41411059    -0.37100
O1177       O  0.82867235  0.52913758  0.36629485    -0.38000
O1178       O  0.84381396  0.56612244  0.38163028    -0.34200
O1179       O  0.70925684  0.58220223  0.37505012    -0.35600
O1180       O  0.71956716  0.59853595  0.42798205    -0.39900
C1181       C  0.73444050  0.89048830  0.08581420    -0.13600
C1182       C  0.72169148  0.88583044  0.11887018     0.16800
C1183       C  0.70517086  0.90419501  0.13290143     0.03100
C1184       C  0.70095537  0.92654779  0.11319795    -0.12100
C1185       C  0.71327545  0.93111316  0.07969647    -0.03100
C1186       C  0.73048682  0.91300058  0.06622764     0.02300
C1187       C  0.72550270  0.86154485  0.13819675     0.09200
N1188       N  0.69159833  0.89977615  0.16620523     0.65500
H1189       H  0.68737889  0.94006999  0.12354179     0.18400
N1190       N  0.74244762  0.91620054  0.03132906     0.76000
H1191       H  0.74713095  0.87635214  0.07483918     0.10000
C1192       C  0.71417205  0.83901997  0.12535955     0.03700
C1193       C  0.71813128  0.81629136  0.14425833    -0.05100
C1194       C  0.73358401  0.81564656  0.17552789    -0.23400
C1195       C  0.74515511  0.83805479  0.18812921     0.12900
C1196       C  0.74086191  0.86089562  0.16962396    -0.12600
N1197       N  0.69850591  0.83901783  0.09334104     0.64600
H1198       H  0.70928018  0.79903452  0.13440506     0.12400
N1199       N  0.76145866  0.83771846  0.21944107     0.61200
H1200       H  0.74977192  0.87811974  0.17947410     0.08600
O1201       O  0.73416382  0.90420774  0.00384140    -0.40200
O1202       O  0.76378145  0.92691841  0.02956522    -0.39400
O1203       O  0.70028843  0.90807200  0.19618090    -0.39400
O1204       O  0.66934430  0.89110692  0.16491811    -0.37100
O1205       O  0.75271725  0.84223858  0.25096852    -0.38000
O1206       O  0.78446968  0.83210679  0.21576159    -0.34200
O1207       O  0.70759041  0.83209058  0.06296590    -0.35600
O1208       O  0.67487662  0.84109792  0.09674898    -0.39900
C1209       C  0.87052908  0.74209846  0.16149295    -0.13600
C1210       C  0.87550075  0.72077331  0.13977308     0.16800
C1211       C  0.85732902  0.70117596  0.13807392     0.03100
C1212       C  0.83436139  0.70343826  0.15694278    -0.12100
C1213       C  0.82914144  0.72486089  0.17834980    -0.03100
C1214       C  0.84779854  0.74406722  0.18128292     0.02300
C1215       C  0.89994081  0.71860974  0.11977074     0.09200
N1216       N  0.86168180  0.67915303  0.11629934     0.65500
H1217       H  0.82026667  0.68858872  0.15426618     0.18400
N1218       N  0.84414721  0.76531039  0.20497394     0.76000
H1219       H  0.88462569  0.75697332  0.16378223     0.10000
C1220       C  0.90591313  0.73449641  0.08978777     0.03700
C1221       C  0.92781891  0.73005891  0.06897506    -0.05100
C1222       C  0.94408133  0.70996236  0.07770633    -0.23400
C1223       C  0.93923758  0.69557034  0.10975706     0.12900
C1224       C  0.91710917  0.69972867  0.13006132    -0.12600
N1225       N  0.88895671  0.75400899  0.07856094     0.64600
H1226       H  0.93113798  0.74124155  0.04443980     0.12400
N1227       N  0.95679741  0.67686665  0.12217685     0.61200
H1228       H  0.91319283  0.68805449  0.15392352     0.08600
O1229       O  0.84424163  0.76213809  0.23935023    -0.40200
O1230       O  0.84466087  0.78747833  0.19198482    -0.39400
O1231       O  0.86652472  0.65831106  0.13171107    -0.39400
O1232       O  0.85787340  0.67987475  0.08208287    -0.37100
O1233       O  0.94927867  0.65465304  0.12906857    -0.38000
O1234       O  0.97883032  0.68351442  0.13155289    -0.34200
O1235       O  0.89467163  0.77691169  0.08407449    -0.35600
O1236       O  0.86982110  0.74854910  0.05934726    -0.39900
C1237       C  0.24752712  0.58850017  0.38239275    -0.13600
C1238       C  0.22856780  0.60327004  0.36607397     0.16800
C1239       C  0.20307488  0.59769178  0.37332375     0.03100
C1240       C  0.19686970  0.57851958  0.39822564    -0.12100
C1241       C  0.21570671  0.56407982  0.41554174    -0.03100
C1242       C  0.24126661  0.56870993  0.40667086     0.02300
C1243       C  0.23541143  0.62550311  0.34339084     0.09200
N1244       N  0.18331135  0.61196384  0.35647229     0.65500
H1245       H  0.17712037  0.57519719  0.40460105     0.18400
N1246       N  0.26106084  0.55470117  0.42383634     0.76000
H1247       H  0.26722756  0.59273097  0.37688532     0.10000
C1248       C  0.24186243  0.64871713  0.35998203     0.03700
C1249       C  0.24695340  0.66994375  0.33810761    -0.05100
C1250       C  0.24572429  0.66845209  0.29965540    -0.23400
C1251       C  0.23974961  0.64504124  0.28301762     0.12900
C1252       C  0.23440948  0.62383365  0.30498809    -0.12600
N1253       N  0.24240879  0.65117911  0.39906489     0.64600
H1254       H  0.25133684  0.68786185  0.35118773     0.12400
N1255       N  0.23933911  0.64251769  0.24393545     0.61200
H1256       H  0.22950788  0.60599213  0.29208582     0.08600
O1257       O  0.27169837  0.56345544  0.45216005    -0.40200
O1258       O  0.27108519  0.53652598  0.40689698    -0.39400
O1259       O  0.17380618  0.60446955  0.32656441    -0.39400
O1260       O  0.17277088  0.62952474  0.37410245    -0.37100
O1261       O  0.25987536  0.64024910  0.22670402    -0.38000
O1262       O  0.21870930  0.63817347  0.22760629    -0.34200
O1263       O  0.26334806  0.65198888  0.41568025    -0.35600
O1264       O  0.22238596  0.65648110  0.41613198    -0.39900
C1265       C  0.35664341  0.76492930  0.36527083    -0.13600
C1266       C  0.38002360  0.77099921  0.34919983     0.16800
C1267       C  0.38194364  0.77147447  0.31054247     0.03100
C1268       C  0.36046023  0.76666485  0.28879084    -0.12100
C1269       C  0.33687828  0.76163016  0.30502831    -0.03100
C1270       C  0.33517839  0.76045326  0.34365272     0.02300
C1271       C  0.40161663  0.77790189  0.37360486     0.09200
N1272       N  0.40520770  0.77813260  0.29306915     0.65500
H1273       H  0.36200626  0.76752672  0.25913056     0.18400
N1274       N  0.31149625  0.75578755  0.36132319     0.76000
H1275       H  0.35491232  0.76427563  0.39492718     0.10000
C1276       C  0.39924686  0.79801115  0.39864766     0.03700
C1277       C  0.41836443  0.80279585  0.42423070    -0.05100
C1278       C  0.44063693  0.78829395  0.42532558    -0.23400
C1279       C  0.44336040  0.76850567  0.39947682     0.12900
C1280       C  0.42384780  0.76341175  0.37405090    -0.12600
N1281       N  0.37768435  0.81423831  0.39777675     0.64600
H1282       H  0.41574034  0.81842759  0.44304990     0.12400
N1283       N  0.46566649  0.75340483  0.39862281     0.61200
H1284       H  0.42586854  0.74779337  0.35504308     0.08600
O1285       O  0.30669744  0.73410699  0.37424599    -0.40200
O1286       O  0.29750904  0.77418050  0.36962607    -0.39400
O1287       O  0.41748781  0.76152284  0.27588995    -0.39400
O1288       O  0.41142229  0.80113913  0.29004819    -0.37100
O1289       O  0.46641763  0.73289937  0.41642464    -0.38000
O1290       O  0.48303831  0.75864283  0.37610017    -0.34200
O1291       O  0.36303377  0.81515669  0.42506245    -0.35600
O1292       O  0.37530933  0.83013265  0.37208497    -0.39900
C1293       C  0.15122978  0.71778316  0.12452700    -0.13600
C1294       C  0.13106956  0.73434838  0.13117297     0.16800
C1295       C  0.13345483  0.75265040  0.15909215     0.03100
C1296       C  0.15617505  0.75478973  0.17883559    -0.12100
C1297       C  0.17643462  0.73848084  0.17166704    -0.03100
C1298       C  0.17370508  0.71957945  0.14471879     0.02300
C1299       C  0.10765731  0.73163074  0.10898665     0.09200
N1300       N  0.11315730  0.76946476  0.16712577     0.65500
H1301       H  0.15810620  0.76929861  0.19967863     0.18400
N1302       N  0.19372346  0.70224210  0.13745077     0.76000
H1303       H  0.14941390  0.70325925  0.10367577     0.10000
C1304       C  0.10839821  0.73445087  0.07048259     0.03700
C1305       C  0.08754135  0.72721617  0.04924618    -0.05100
C1306       C  0.06563184  0.71753543  0.06578670    -0.23400
C1307       C  0.06429262  0.71581158  0.10432850     0.12900
C1308       C  0.08526815  0.72300932  0.12570367    -0.12600
N1309       N  0.13043591  0.74421764  0.05260334     0.64600
H1310       H  0.08865725  0.72859081  0.01955581     0.12400
N1311       N  0.04272861  0.70471156  0.12180522     0.61200
H1312       H  0.08466097  0.72030055  0.15520679     0.08600
O1313       O  0.20846711  0.70621124  0.11082544    -0.40200
O1314       O  0.19439496  0.68129572  0.15415116    -0.39400
O1315       O  0.09935587  0.76541137  0.19478040    -0.39400
O1316       O  0.11128316  0.79010001  0.14984388    -0.37100
O1317       O  0.03875144  0.68120023  0.11920019    -0.38000
O1318       O  0.02950423  0.71773736  0.14343791    -0.34200
O1319       O  0.14369485  0.72985864  0.03286916    -0.35600
O1320       O  0.13437088  0.76779765  0.05193758    -0.39900
C1321       C  0.29175037  0.86006659  0.13248731    -0.13600
C1322       C  0.27464613  0.87990807  0.13888686     0.16800
C1323       C  0.25400028  0.87538835  0.16270767     0.03100
C1324       C  0.25137067  0.85175827  0.18021322    -0.12100
C1325       C  0.26903476  0.83240414  0.17455514    -0.03100
C1326       C  0.28923921  0.83665543  0.15022560     0.02300
C1327       C  0.27874955  0.90461728  0.11946049     0.09200
N1328       N  0.23588671  0.89468039  0.17011286     0.65500
H1329       H  0.23561218  0.84856257  0.19866370     0.18400
N1330       N  0.30702986  0.81710010  0.14262085     0.76000
H1331       H  0.30708473  0.86262892  0.11312906     0.10000
C1332       C  0.30295566  0.91601552  0.11885408     0.03700
C1333       C  0.30796416  0.93613120  0.09493784    -0.05100
C1334       C  0.28925638  0.94593363  0.07151228    -0.23400
C1335       C  0.26440237  0.93615208  0.07444375     0.12900
C1336       C  0.25946499  0.91538687  0.09781608    -0.12600
N1337       N  0.32296446  0.90695060  0.14180057     0.64600
H1338       H  0.32701053  0.94377874  0.09420485     0.12400
N1339       N  0.24426366  0.94621781  0.05277283     0.61200
H1340       H  0.24077066  0.90695089  0.09764404     0.08600
O1341       O  0.30200009  0.80070820  0.11848113    -0.40200
O1342       O  0.32906946  0.81844996  0.15580851    -0.39400
O1343       O  0.21355106  0.89221409  0.15835855    -0.39400
O1344       O  0.24069890  0.91120245  0.19415278    -0.37100
O1345       O  0.23754303  0.93510419  0.02366888    -0.38000
O1346       O  0.23064313  0.96358086  0.06574085    -0.34200
O1347       O  0.34320822  0.89915736  0.12752210    -0.35600
O1348       O  0.32186143  0.91015058  0.17610277    -0.39900
C1349       C  0.35471127  0.77734591  0.61676563    -0.13600
C1350       C  0.37588123  0.78193989  0.63922637     0.16800
C1351       C  0.37222720  0.78463870  0.67744962     0.03100
C1352       C  0.34787996  0.78219201  0.69243842    -0.12100
C1353       C  0.32679850  0.77735320  0.66993848    -0.03100
C1354       C  0.33037788  0.77513089  0.63169142     0.02300
C1355       C  0.40117547  0.78533924  0.62167484     0.09200
N1356       N  0.39312119  0.78917992  0.70151567     0.65500
H1357       H  0.34542942  0.78375710  0.72190305     0.18400
N1358       N  0.30936791  0.77116821  0.60759984     0.76000
H1359       H  0.35699760  0.77607912  0.58725025     0.10000
C1360       C  0.41109123  0.76691406  0.59770967     0.03700
C1361       C  0.43281109  0.77222430  0.57696972    -0.05100
C1362       C  0.44516293  0.79577915  0.57944458    -0.23400
C1363       C  0.43612208  0.81365966  0.60519573     0.12900
C1364       C  0.41424720  0.80837793  0.62572354    -0.12600
N1365       N  0.39889908  0.74288382  0.59345435     0.64600
H1366       H  0.43933145  0.75816384  0.55757491     0.12400
N1367       N  0.44854651  0.83751909  0.61025118     0.61200
H1368       H  0.40687573  0.82281449  0.64382784     0.08600
O1369       O  0.30707267  0.75041825  0.59075952    -0.40200
O1370       O  0.29572046  0.78967437  0.59847815    -0.39400
O1371       O  0.39565053  0.81056625  0.71651903    -0.39400
O1372       O  0.40601721  0.77075420  0.71301000    -0.37100
O1373       O  0.43870934  0.85744619  0.59762668    -0.38000
O1374       O  0.46723723  0.83912982  0.63172639    -0.34200
O1375       O  0.38849292  0.73728273  0.56329711    -0.35600
O1376       O  0.40195503  0.72595398  0.61753423    -0.39900
C1377       C  0.24361451  0.59506598  0.60064183    -0.13600
C1378       C  0.22440317  0.60874583  0.61795935     0.16800
C1379       C  0.19916838  0.60086041  0.61396397     0.03100
C1380       C  0.19338094  0.57999503  0.59196410    -0.12100
C1381       C  0.21231077  0.56703339  0.57241536    -0.03100
C1382       C  0.23781557  0.57437848  0.57784105     0.02300
C1383       C  0.23040747  0.63278931  0.63677608     0.09200
N1384       N  0.17903110  0.61502916  0.62990849     0.65500
H1385       H  0.17364534  0.57486016  0.58872063     0.18400
N1386       N  0.25790305  0.56226440  0.55867760     0.76000
H1387       H  0.26309910  0.60120845  0.60347514     0.10000
C1388       C  0.23493599  0.63380129  0.67487225     0.03700
C1389       C  0.23830998  0.65731266  0.69211258    -0.05100
C1390       C  0.23720585  0.67987165  0.67170247    -0.23400
C1391       C  0.23313313  0.67873946  0.63349968     0.12900
C1392       C  0.22975501  0.65528854  0.61634781    -0.12600
N1393       N  0.23572309  0.61114940  0.69632850     0.64600
H1394       H  0.24146734  0.65804210  0.72151758     0.12400
N1395       N  0.23145528  0.70136437  0.61209378     0.61200
H1396       H  0.22599958  0.65463625  0.58707475     0.08600
O1397       O  0.27122674  0.54604074  0.57511478    -0.40200
O1398       O  0.26562121  0.57158578  0.52878279    -0.39400
O1399       O  0.16948234  0.63319214  0.61219128    -0.39400
O1400       O  0.16786120  0.60660021  0.65801570    -0.37100
O1401       O  0.25057372  0.70932041  0.59481425    -0.38000
O1402       O  0.21016877  0.71129491  0.60632992    -0.34200
O1403       O  0.25641924  0.59975513  0.70069468    -0.35600
O1404       O  0.21669687  0.60457212  0.71496881    -0.39900
C1405       C  0.27700990  0.86627210  0.84441532    -0.13600
C1406       C  0.26098441  0.88725366  0.84069671     0.16800
C1407       C  0.24247122  0.88706142  0.81271308     0.03100
C1408       C  0.23949287  0.86556446  0.79034722    -0.12100
C1409       C  0.25492256  0.84427293  0.79527001    -0.03100
C1410       C  0.27403998  0.84489299  0.82218779     0.02300
C1411       C  0.26409871  0.90879546  0.86670849     0.09200
N1412       N  0.22603256  0.90813947  0.80754695     0.65500
H1413       H  0.22477779  0.86525127  0.76960360     0.18400
N1414       N  0.29000984  0.82352075  0.82803653     0.76000
H1415       H  0.29177816  0.86637179  0.86508345     0.10000
C1416       C  0.26299790  0.90459055  0.90498161     0.03700
C1417       C  0.27036969  0.92369430  0.92932233    -0.05100
C1418       C  0.27868617  0.94729299  0.91642751    -0.23400
C1419       C  0.27877973  0.95209060  0.87830327     0.12900
C1420       C  0.27132188  0.93287805  0.85372041    -0.12600
N1421       N  0.25507870  0.88068121  0.91952843     0.64600
H1422       H  0.27029742  0.91981771  0.95859354     0.12400
N1423       N  0.28883925  0.97529542  0.86411300     0.61200
H1424       H  0.27281439  0.93622464  0.82442468     0.08600
O1425       O  0.28451268  0.80756616  0.85263754    -0.40200
O1426       O  0.31123015  0.82248858  0.81235193    -0.39400
O1427       O  0.22896967  0.92243837  0.78005307    -0.39400
O1428       O  0.20630395  0.90997299  0.82676584    -0.37100
O1429       O  0.31247070  0.97863367  0.86301669    -0.38000
O1430       O  0.27447800  0.99069885  0.84786439    -0.34200
O1431       O  0.27112378  0.86618662  0.93413456    -0.35600
O1432       O  0.23181932  0.87619881  0.92379233    -0.39900
C1433       C  0.09317910  0.70051850  0.86727537    -0.13600
C1434       C  0.10142102  0.72576873  0.86780443     0.16800
C1435       C  0.08885269  0.74312286  0.89066031     0.03100
C1436       C  0.06922664  0.73476661  0.91380212    -0.12100
C1437       C  0.06183740  0.70910336  0.91492656    -0.03100
C1438       C  0.07362811  0.69208234  0.89030549     0.02300
C1439       C  0.12389019  0.73319254  0.84553089     0.09200
N1440       N  0.09693231  0.76893863  0.89245444     0.65500
H1441       H  0.06063707  0.74826243  0.93229535     0.18400
N1442       N  0.06646176  0.66598946  0.88878406     0.76000
H1443       H  0.10236963  0.68708635  0.84928145     0.10000
C1444       C  0.14790333  0.72303795  0.85354174     0.03700
C1445       C  0.16873448  0.72912497  0.83141169    -0.05100
C1446       C  0.16612550  0.74524621  0.80103214    -0.23400
C1447       C  0.14214801  0.75527435  0.79268530     0.12900
C1448       C  0.12125330  0.74935857  0.81504111    -0.12600
N1449       N  0.15143394  0.70676667  0.88450720     0.64600
H1450       H  0.18709742  0.72131894  0.83802816     0.12400
N1451       N  0.13870205  0.77079623  0.76090587     0.61200
H1452       H  0.10284480  0.75693789  0.80816629     0.08600
O1453       O  0.04921104  0.65903271  0.86698391    -0.40200
O1454       O  0.08046115  0.64958852  0.90355742    -0.39400
O1455       O  0.08337364  0.78605485  0.87853943    -0.39400
O1456       O  0.11539263  0.77495146  0.91269274    -0.37100
O1457       O  0.14210197  0.79440850  0.76300155    -0.38000
O1458       O  0.13514107  0.76063832  0.72995854    -0.34200
O1459       O  0.15380237  0.68323633  0.87980509    -0.35600
O1460       O  0.15543329  0.71618911  0.91582521    -0.39900
C1461       C  0.24624198  0.42270778  0.60512386    -0.13600
C1462       C  0.22728848  0.40798837  0.62176787     0.16800
C1463       C  0.20177367  0.41379280  0.61553930     0.03100
C1464       C  0.19545880  0.43310809  0.59107668    -0.12100
C1465       C  0.21426484  0.44746386  0.57332411    -0.03100
C1466       C  0.23990340  0.44266070  0.58132952     0.02300
C1467       C  0.23406769  0.38550516  0.64362471     0.09200
N1468       N  0.18209372  0.39977739  0.63330544     0.65500
H1469       H  0.17565370  0.43668649  0.58555024     0.18400
N1470       N  0.25962973  0.45681057  0.56394940     0.76000
H1471       H  0.26595480  0.41829892  0.60996200     0.10000
C1472       C  0.23783408  0.36195572  0.62646164     0.03700
C1473       C  0.24272389  0.34052019  0.64782900    -0.05100
C1474       C  0.24360811  0.34211050  0.68625253    -0.23400
C1475       C  0.24027476  0.36578664  0.70340520     0.12900
C1476       C  0.23547647  0.38729980  0.68197019    -0.12600
N1477       N  0.23569607  0.35937339  0.58748437     0.64600
H1478       H  0.24502333  0.32234926  0.63447717     0.12400
N1479       N  0.24159265  0.36817380  0.74245541     0.61200
H1480       H  0.23253456  0.40539076  0.69525488     0.08600
O1481       O  0.26872978  0.44925157  0.53390809    -0.40200
O1482       O  0.27025847  0.47472790  0.58099425    -0.39400
O1483       O  0.17457371  0.40650601  0.66466759    -0.39400
O1484       O  0.16975866  0.38331284  0.61560670    -0.37100
O1485       O  0.26271769  0.37202203  0.75764336    -0.38000
O1486       O  0.22157712  0.37133788  0.76065212    -0.34200
O1487       O  0.25508146  0.35449087  0.56869050    -0.35600
O1488       O  0.21410617  0.35741356  0.57293520    -0.39900
C1489       C  0.35429439  0.23314309  0.62727315    -0.13600
C1490       C  0.37774006  0.23632272  0.64481537     0.16800
C1491       C  0.37839315  0.24551039  0.68113665     0.03100
C1492       C  0.35571065  0.25028442  0.69986498    -0.12100
C1493       C  0.33226871  0.24646733  0.68255152    -0.03100
C1494       C  0.33167877  0.23844457  0.64567975     0.02300
C1495       C  0.40103757  0.22820324  0.62549047     0.09200
N1496       N  0.40193175  0.24954817  0.69951554     0.65500
H1497       H  0.35634876  0.25675489  0.72808698     0.18400
N1498       N  0.30817691  0.23551517  0.62673617     0.76000
H1499       H  0.35357835  0.22629692  0.59923335     0.10000
C1500       C  0.40649965  0.20231827  0.62198828     0.03700
C1501       C  0.42706515  0.19449719  0.60082307    -0.05100
C1502       C  0.44269217  0.21208134  0.58244519    -0.23400
C1503       C  0.43779122  0.23825222  0.58731953     0.12900
C1504       C  0.41700743  0.24603121  0.60860231    -0.12600
N1505       N  0.39086789  0.18366287  0.63926548     0.64600
H1506       H  0.43025301  0.17435194  0.59793763     0.12400
N1507       N  0.45348349  0.25716447  0.57070497     0.61200
H1508       H  0.41303139  0.26604264  0.61136439     0.08600
O1509       O  0.29852548  0.25423926  0.61043972    -0.40200
O1510       O  0.29886212  0.21370946  0.62215942    -0.39400
O1511       O  0.41093729  0.27165448  0.70187416    -0.39400
O1512       O  0.41175943  0.23182459  0.71781460    -0.37100
O1513       O  0.44558212  0.26932232  0.54314685    -0.38000
O1514       O  0.47313623  0.26465083  0.58718742    -0.34200
O1515       O  0.37375450  0.17264791  0.62104003    -0.35600
O1516       O  0.39615857  0.17602331  0.67121701    -0.39900
C1517       C  0.07894718  0.28496395  0.86167558    -0.13600
C1518       C  0.10298742  0.27967869  0.87647829     0.16800
C1519       C  0.10586166  0.27853748  0.91500773     0.03100
C1520       C  0.08548008  0.28408944  0.93776464    -0.12100
C1521       C  0.06171528  0.28982036  0.92318318    -0.03100
C1522       C  0.05825528  0.28992638  0.88480771     0.02300
C1523       C  0.12554513  0.27789947  0.85221304     0.09200
N1524       N  0.12946624  0.27180693  0.93148462     0.65500
H1525       H  0.08830385  0.28417894  0.96726513     0.18400
N1526       N  0.03459347  0.29713851  0.86904771     0.76000
H1527       H  0.07651766  0.28644307  0.83219172     0.10000
C1528       C  0.12685790  0.26055279  0.82282347     0.03700
C1529       C  0.14929434  0.25840643  0.80253922    -0.05100
C1530       C  0.17053036  0.27327174  0.81117239    -0.23400
C1531       C  0.16890040  0.29131093  0.83942178     0.12900
C1532       C  0.14645773  0.29371424  0.85931847    -0.12600
N1533       N  0.10601751  0.24426829  0.81427888     0.64600
H1534       H  0.15043179  0.24456459  0.78067221     0.12400
N1535       N  0.19029124  0.30650832  0.84920737     0.61200
H1536       H  0.14556531  0.30762732  0.88111388     0.08600
O1537       O  0.02055449  0.28058398  0.85445652    -0.40200
O1538       O  0.02961640  0.32028936  0.86462542    -0.39400
O1539       O  0.14044127  0.28708143  0.95293113    -0.39400
O1540       O  0.13724480  0.24932347  0.92917770    -0.37100
O1541       O  0.19153612  0.32927256  0.83876630    -0.38000
O1542       O  0.20606775  0.29830519  0.87232852    -0.34200
O1543       O  0.09499449  0.24624012  0.78363636    -0.35600
O1544       O  0.10077427  0.22589617  0.83517431    -0.39900
C1545       C  0.30023079  0.10155226  0.87091279    -0.13600
C1546       C  0.27717985  0.11327606  0.87855991     0.16800
C1547       C  0.26081358  0.10233654  0.90463502     0.03100
C1548       C  0.26805319  0.08027220  0.92336725    -0.12100
C1549       C  0.29162039  0.06888853  0.91670898    -0.03100
C1550       C  0.30751765  0.07953707  0.88944589     0.02300
C1551       C  0.27069686  0.13671306  0.85835049     0.09200
N1552       N  0.23749851  0.11424778  0.91388678     0.65500
H1553       H  0.25565803  0.07275304  0.94444648     0.18400
N1554       N  0.33105627  0.06818908  0.87991795     0.76000
H1555       H  0.31267752  0.10957102  0.85026005     0.10000
C1556       C  0.28493518  0.15904856  0.86352780     0.03700
C1557       C  0.28085690  0.18001394  0.84077771    -0.05100
C1558       C  0.26259942  0.17916052  0.81287648    -0.23400
C1559       C  0.24803643  0.15700091  0.80800017     0.12900
C1560       C  0.25213104  0.13595665  0.83078686    -0.12600
N1561       N  0.30336836  0.16073852  0.89217090     0.64600
H1562       H  0.29177096  0.19717500  0.84513340     0.12400
N1563       N  0.22966786  0.15540046  0.77927889     0.61200
H1564       H  0.24140080  0.11871360  0.82619359     0.08600
O1565       O  0.35146034  0.07962675  0.88717932    -0.40200
O1566       O  0.33124111  0.04969624  0.85802072    -0.39400
O1567       O  0.21687483  0.10458732  0.90333409    -0.39400
O1568       O  0.23733232  0.13177649  0.93739622    -0.37100
O1569       O  0.23643173  0.14895315  0.74742576    -0.38000
O1570       O  0.20644560  0.15650571  0.78691598    -0.34200
O1571       O  0.32656727  0.16160030  0.88425211    -0.35600
O1572       O  0.29639310  0.16508860  0.92467969    -0.39900
C1573       C  0.58585305  0.23675150  0.61832758    -0.13600
C1574       C  0.60247211  0.21757136  0.62945137     0.16800
C1575       C  0.59848013  0.19265383  0.61696785     0.03100
C1576       C  0.57921916  0.18771714  0.59164839    -0.12100
C1577       C  0.56314993  0.20702708  0.57907009    -0.03100
C1578       C  0.56613020  0.23164708  0.59350926     0.02300
C1579       C  0.62508162  0.22419807  0.65150072     0.09200
N1580       N  0.61358095  0.17212906  0.63018737     0.65500
H1581       H  0.57675056  0.16850318  0.58186689     0.18400
N1582       N  0.55024379  0.25191154  0.58186445     0.76000
H1583       H  0.58876190  0.25595268  0.62796028     0.10000
C1584       C  0.64957695  0.22221525  0.63639971     0.03700
C1585       C  0.67069642  0.22799638  0.65802756    -0.05100
C1586       C  0.66782033  0.23608545  0.69434208    -0.23400
C1587       C  0.64345902  0.23833450  0.70938999     0.12900
C1588       C  0.62223256  0.23240387  0.68791118    -0.12600
N1589       N  0.65323757  0.21506093  0.59887790     0.64600
H1590       H  0.68947016  0.22631385  0.64642483     0.12400
N1591       N  0.64015190  0.24652552  0.74644155     0.61200
H1592       H  0.60351265  0.23398778  0.69969992     0.08600
O1593       O  0.53192782  0.25849748  0.60177039    -0.40200
O1594       O  0.55712152  0.26596101  0.55561252    -0.39400
O1595       O  0.61187890  0.16545057  0.66340819    -0.39400
O1596       O  0.62468858  0.15786318  0.60767116    -0.37100
O1597       O  0.64055302  0.26984791  0.75387031    -0.38000
O1598       O  0.63938163  0.23047125  0.77213568    -0.34200
O1599       O  0.64570274  0.22948484  0.57348378    -0.35600
O1600       O  0.66754806  0.19677402  0.59120801    -0.39900
C1601       C  0.80332716  0.40091818  0.62160263    -0.13600
C1602       C  0.77766804  0.39451810  0.62407459     0.16800
C1603       C  0.75984931  0.40917233  0.60475234     0.03100
C1604       C  0.76798320  0.42951353  0.58276763    -0.12100
C1605       C  0.79381056  0.43573166  0.57946465    -0.03100
C1606       C  0.81155723  0.42115520  0.59958993     0.02300
C1607       C  0.77018151  0.37231927  0.64681417     0.09200
N1608       N  0.73340947  0.40384405  0.60752063     0.65500
H1609       H  0.75392985  0.44020334  0.56770182     0.18400
N1610       N  0.83808313  0.42620354  0.59756107     0.76000
H1611       H  0.81717334  0.38979427  0.63644330     0.10000
C1612       C  0.76299391  0.34908790  0.63071955     0.03700
C1613       C  0.75790460  0.32800222  0.65308326    -0.05100
C1614       C  0.75975554  0.32957175  0.69152014    -0.23400
C1615       C  0.76624199  0.35303571  0.70761834     0.12900
C1616       C  0.77169195  0.37403374  0.68521690    -0.12600
N1617       N  0.76195624  0.34627619  0.59169393     0.64600
H1618       H  0.75310751  0.31007599  0.64033865     0.12400
N1619       N  0.76704227  0.35587213  0.74664932     0.61200
H1620       H  0.77704336  0.39184067  0.69785291     0.08600
O1621       O  0.85165897  0.41338512  0.57610836    -0.40200
O1622       O  0.84845689  0.43990616  0.62167661    -0.39400
O1623       O  0.72120414  0.41213664  0.63467140    -0.39400
O1624       O  0.72153747  0.39580669  0.57975759    -0.37100
O1625       O  0.74664886  0.35709793  0.76447236    -0.38000
O1626       O  0.78762935  0.36142774  0.76231837    -0.34200
O1627       O  0.78214128  0.34287584  0.57399555    -0.35600
O1628       O  0.74099269  0.34201961  0.57624305    -0.39900
C1629       C  0.70287823  0.08393419  0.87811700    -0.13600
C1630       C  0.72304414  0.09979423  0.88819837     0.16800
C1631       C  0.73798443  0.09337494  0.91895849     0.03100
C1632       C  0.73227527  0.07150393  0.93932981    -0.12100
C1633       C  0.71124236  0.05636217  0.93043328    -0.03100
C1634       C  0.69681410  0.06242847  0.89895857     0.02300
C1635       C  0.72707591  0.12374801  0.86765698     0.09200
N1636       N  0.75745253  0.11005110  0.93183633     0.65500
H1637       H  0.74315907  0.06747072  0.96389683     0.18400
N1638       N  0.67584853  0.04701591  0.88794714     0.76000
H1639       H  0.69140459  0.08863462  0.85438479     0.10000
C1640       C  0.74875743  0.12794217  0.84595884     0.03700
C1641       C  0.75191403  0.15110654  0.82757430    -0.05100
C1642       C  0.73359147  0.17015993  0.83009453    -0.23400
C1643       C  0.71189487  0.16589440  0.85173466     0.12900
C1644       C  0.70876823  0.14278290  0.87014730    -0.12600
N1645       N  0.76706445  0.10845056  0.84094015     0.64600
H1646       H  0.76847414  0.15407171  0.81057893     0.12400
N1647       N  0.69316018  0.18507332  0.85581801     0.61200
H1648       H  0.69210934  0.13978259  0.88693095     0.08600
O1649       O  0.67931533  0.02893320  0.86594968    -0.40200
O1650       O  0.65361894  0.05399504  0.89510267    -0.39400
O1651       O  0.75150530  0.13087806  0.94631831    -0.39400
O1652       O  0.77977320  0.10204534  0.93518285    -0.37100
O1653       O  0.67176116  0.18227648  0.84095421    -0.38000
O1654       O  0.69645924  0.20246255  0.87908441    -0.34200
O1655       O  0.76232715  0.09047786  0.81915121    -0.35600
O1656       O  0.78937656  0.11171217  0.85236219    -0.39900
C1657       C  0.87069892  0.24697270  0.83951320    -0.13600
C1658       C  0.87441112  0.26930509  0.85971850     0.16800
C1659       C  0.85491534  0.28747874  0.86086753     0.03100
C1660       C  0.83242535  0.28324295  0.84169190    -0.12100
C1661       C  0.82879080  0.26103891  0.82142246    -0.03100
C1662       C  0.84802044  0.24267598  0.82054294     0.02300
C1663       C  0.89893908  0.27417578  0.87824969     0.09200
N1664       N  0.85748456  0.31012317  0.88204404     0.65500
H1665       H  0.81753188  0.29723584  0.84295300     0.18400
N1666       N  0.84495691  0.21991619  0.79980657     0.76000
H1667       H  0.88565825  0.23311022  0.83771386     0.10000
C1668       C  0.90905139  0.25726775  0.90441388     0.03700
C1669       C  0.93034538  0.26437155  0.92493023    -0.05100
C1670       C  0.94183361  0.28812813  0.91970178    -0.23400
C1671       C  0.93325648  0.30383935  0.89088511     0.12900
C1672       C  0.91193840  0.29677732  0.87057607    -0.12600
N1673       N  0.89699711  0.23359497  0.91219649     0.64600
H1674       H  0.93684166  0.25192955  0.94665774     0.12400
N1675       N  0.94585035  0.32710198  0.88212233     0.61200
H1676       H  0.90516409  0.30929069  0.84912112     0.08600
O1677       O  0.84915533  0.22011596  0.76569387    -0.40200
O1678       O  0.84201124  0.19905769  0.81625604    -0.39400
O1679       O  0.85874430  0.33129462  0.86599795    -0.39400
O1680       O  0.85434577  0.30931167  0.91638429    -0.37100
O1681       O  0.93446331  0.34785130  0.88603423    -0.38000
O1682       O  0.96665220  0.32665116  0.86522446    -0.34200
O1683       O  0.90666646  0.21337178  0.90047687    -0.35600
O1684       O  0.87982581  0.23251381  0.93616747    -0.39900
C1685       C  0.79436219  0.64911059  0.62762193    -0.13600
C1686       C  0.77537339  0.63044650  0.63028041     0.16800
C1687       C  0.75486851  0.63468755  0.65426129     0.03100
C1688       C  0.75335421  0.65746242  0.67408708    -0.12100
C1689       C  0.77198139  0.67637482  0.67048991    -0.03100
C1690       C  0.79275174  0.67191171  0.64722751     0.02300
C1691       C  0.77747276  0.60688972  0.60767776     0.09200
N1692       N  0.73489468  0.61653509  0.65760524     0.65500
H1693       H  0.73725988  0.66065864  0.69183380     0.18400
N1694       N  0.81191884  0.69075909  0.64228749     0.76000
H1695       H  0.81047765  0.64606511  0.60986951     0.10000
C1696       C  0.78052540  0.60830079  0.56924376     0.03700
C1697       C  0.78553984  0.58638578  0.54901972    -0.05100
C1698       C  0.78702584  0.56245898  0.56588084    -0.23400
C1699       C  0.78263072  0.56069059  0.60412021     0.12900
C1700       C  0.77830138  0.58292429  0.62465696    -0.12600
N1701       N  0.77847420  0.63192570  0.55023819     0.64600
H1702       H  0.78851551  0.58814183  0.51964657     0.12400
N1703       N  0.78366789  0.53685224  0.62280521     0.61200
H1704       H  0.77613255  0.58151873  0.65417679     0.08600
O1705       O  0.83289084  0.68847578  0.65849167    -0.40200
O1706       O  0.80946658  0.70719287  0.61734691    -0.39400
O1707       O  0.73332370  0.60309361  0.68621622    -0.39400
O1708       O  0.71649551  0.61727591  0.63552954    -0.37100
O1709       O  0.79729615  0.53453981  0.65110246    -0.38000
O1710       O  0.76731427  0.52006592  0.61577098    -0.34200
O1711       O  0.79772395  0.64153519  0.53512563    -0.35600
O1712       O  0.75688278  0.64066553  0.54293723    -0.39900
C1713       C  0.64995784  0.79275000  0.63595579    -0.13600
C1714       C  0.63212958  0.77300302  0.63653827     0.16800
C1715       C  0.63714702  0.75115454  0.65761714     0.03100
C1716       C  0.66001722  0.74927157  0.67711595    -0.12100
C1717       C  0.67830552  0.76863585  0.67528887    -0.03100
C1718       C  0.67289479  0.79072991  0.65499129     0.02300
C1719       C  0.60938859  0.77511331  0.61276351     0.09200
N1720       N  0.61996021  0.73016794  0.65766996     0.65500
H1721       H  0.66398641  0.73220387  0.69261226     0.18400
N1722       N  0.69102602  0.81076758  0.65205448     0.76000
H1723       H  0.64630829  0.80957987  0.61974028     0.10000
C1724       C  0.58495681  0.77923568  0.62708516     0.03700
C1725       C  0.56440750  0.78296592  0.60293306    -0.05100
C1726       C  0.56817434  0.78364062  0.56471041    -0.23400
C1727       C  0.59259959  0.77889265  0.55071075     0.12900
C1728       C  0.61275643  0.77440203  0.57467203    -0.12600
N1729       N  0.58118227  0.78164575  0.66584156     0.64600
H1730       H  0.54593535  0.78724299  0.61407235     0.12400
N1731       N  0.59739721  0.77918140  0.51205304     0.61200
H1732       H  0.63143041  0.77117351  0.56343807     0.08600
O1733       O  0.70687754  0.81053257  0.62620026    -0.40200
O1734       O  0.68808300  0.83073502  0.67050666    -0.39400
O1735       O  0.61730620  0.71700354  0.62900543    -0.39400
O1736       O  0.61076252  0.72233409  0.68759721    -0.37100
O1737       O  0.60527784  0.79927763  0.49704902    -0.38000
O1738       O  0.59930275  0.75849071  0.49506426    -0.34200
O1739       O  0.59196319  0.79929367  0.68331048    -0.35600
O1740       O  0.56562276  0.76737898  0.68216380    -0.39900
C1741       C  0.90545625  0.70268800  0.88291256    -0.13600
C1742       C  0.90519780  0.72795665  0.87136139     0.16800
C1743       C  0.92441380  0.74448411  0.88380230     0.03100
C1744       C  0.94306216  0.73552217  0.90820320    -0.12100
C1745       C  0.94250445  0.71043562  0.92145193    -0.03100
C1746       C  0.92354537  0.69383131  0.90782830     0.02300
C1747       C  0.88344666  0.73637967  0.84852710     0.09200
N1748       N  0.92435491  0.77068344  0.87386180     0.65500
H1749       H  0.95728730  0.74863003  0.91825867     0.18400
N1750       N  0.92218127  0.66783150  0.91871622     0.76000
H1751       H  0.89089152  0.68978388  0.87326003     0.10000
C1752       C  0.88589072  0.74256570  0.81092974     0.03700
C1753       C  0.86414659  0.74656544  0.78942256    -0.05100
C1754       C  0.83993002  0.74444192  0.80484765    -0.23400
C1755       C  0.83757643  0.73919588  0.84263889     0.12900
C1756       C  0.85919637  0.73520055  0.86405018    -0.12600
N1757       N  0.91015558  0.74374665  0.79385148     0.64600
H1758       H  0.86612713  0.75097119  0.76047750     0.12400
N1759       N  0.81324723  0.73717954  0.85938855     0.61200
H1760       H  0.85702759  0.73039010  0.89284618     0.08600
O1761       O  0.91121927  0.66214144  0.94839703    -0.40200
O1762       O  0.92491056  0.65093248  0.89461393    -0.39400
O1763       O  0.90807435  0.78521333  0.88765706    -0.39400
O1764       O  0.94308640  0.78006939  0.85717110    -0.37100
O1765       O  0.80173380  0.71620028  0.85928225    -0.38000
O1766       O  0.80529942  0.75493445  0.87935028    -0.34200
O1767       O  0.92014640  0.72366242  0.78223072    -0.35600
O1768       O  0.91881450  0.76487051  0.78342260    -0.39900
C1769       C  0.74274014  0.85309158  0.87002639    -0.13600
C1770       C  0.73615115  0.87650934  0.85452509     0.16800
C1771       C  0.73616084  0.87917207  0.81596933     0.03100
C1772       C  0.74168983  0.85825458  0.79365296    -0.12100
C1773       C  0.74718650  0.83456296  0.80925428    -0.03100
C1774       C  0.74800018  0.83217341  0.84784329     0.02300
C1775       C  0.72785464  0.89726121  0.87921732     0.09200
N1776       N  0.72949606  0.90266459  0.79914285     0.65500
H1777       H  0.74117276  0.86033701  0.76403559     0.18400
N1778       N  0.75321901  0.80835222  0.86486834     0.76000
H1779       H  0.74307372  0.85085267  0.89963110     0.10000
C1780       C  0.70713878  0.89352813  0.90283826     0.03700
C1781       C  0.70050183  0.91225416  0.92792748    -0.05100
C1782       C  0.71411113  0.93515841  0.93055859    -0.23400
C1783       C  0.73479396  0.93908466  0.90652691     0.12900
C1784       C  0.74139359  0.92019910  0.88103457    -0.12600
N1785       N  0.69245159  0.87074088  0.90149790     0.64600
H1786       H  0.68441048  0.90861278  0.94557341     0.12400
N1787       N  0.74973736  0.96165664  0.90827550     0.61200
H1788       H  0.75760615  0.92314674  0.86335721     0.08600
O1789       O  0.77420577  0.80492496  0.88058968    -0.40200
O1790       O  0.73547304  0.79268382  0.86990942    -0.39400
O1791       O  0.74642063  0.91638224  0.78481381    -0.39400
O1792       O  0.70651997  0.90814210  0.79452686    -0.37100
O1793       O  0.76816850  0.96284815  0.93027524    -0.38000
O1794       O  0.74725857  0.97844448  0.88384077    -0.34200
O1795       O  0.69250305  0.85577350  0.92857043    -0.35600
O1796       O  0.67664585  0.86752392  0.87590620    -0.39900
loop_ 
_geom_bond_atom_site_label_1 
_geom_bond_atom_site_label_2 
_geom_bond_distance 
_geom_bond_site_symmetry_2 
_ccdc_geom_bond_type 
N1            C6   1.356       .  A
N1            C5   1.356       .  A
N1           H33   1.039       .  S
N2            C9   1.351       .  A
N2           C10   1.351       .  A
N3            C8   1.354       .  A
N3            C7   1.355       .  A
N3           H34   1.040       .  S
N4           C11   1.355       .  A
N4           C12   1.354       .  A
C5           C13   1.387       .  A
C5           C21   1.420       .  A
C6           C22   1.420       .  A
C6           C14   1.387       .  A
C7           C15   1.387       .  A
C7           C24   1.417       .  A
C8           C23   1.416       .  A
C8           C16   1.387       .  A
C9           C21   1.412       .  A
C9           C17   1.386       .  A
C10          C24   1.413       .  A
C10          C18   1.386       .  A
C11          C19   1.386       .  A
C11          C22   1.418       .  A
C12          C20   1.386       .  A
C12          C23   1.418       .  A
C13          C14   1.380       .  A
C13          H25   1.082       .  S
C14          H26   1.082       .  S
C15          C16   1.377       .  A
C15          H27   1.082       .  S
C16          H28   1.082       .  S
C17          C18   1.372       .  A
C17          H29   1.082       .  S
C18          H30   1.082       .  S
C19          C20   1.374       .  A
C19          H31   1.082       .  S
C20          H32   1.082       .  S
C21        C1754   1.491       .  S
C22        C1689   1.499       .  S
C23        C1717   1.495       .  S
C24        C1773   1.493       .  S
N35          C40   1.354       .  A
N35          C39   1.351       .  A
N35          H67   1.039       .  S
N36          C43   1.351       .  A
N36          C44   1.354       .  A
N37          C42   1.351       .  A
N37          C41   1.355       .  A
N37          H68   1.038       .  S
N38          C45   1.352       .  A
N38          C46   1.350       .  A
C39          C47   1.388       .  A
C39          C55   1.414       .  A
C40          C56   1.413       .  A
C40          C48   1.386       .  A
C41          C49   1.387       .  A
C41          C58   1.417       .  A
C42          C57   1.414       .  A
C42          C50   1.387       .  A
C43          C55   1.415       .  A
C43          C51   1.387       .  A
C44          C58   1.417       .  A
C44          C52   1.386       .  A
C45          C53   1.385       .  A
C45          C56   1.412       .  A
C46          C54   1.387       .  A
C46          C57   1.412       .  A
C47          C48   1.375       .  A
C47          H59   1.082       .  S
C48          H60   1.082       .  S
C49          C50   1.377       .  A
C49          H61   1.082       .  S
C50          H62   1.082       .  S
C51          C52   1.374       .  A
C51          H63   1.082       .  S
C52          H64   1.082       .  S
C53          C54   1.372       .  A
C53          H65   1.082       .  S
C54          H66   1.082       .  S
C55        C1661   1.484       .  S
C56        C1642   1.491       .  S
C57        C1586   1.480       .  S
C58        C1614   1.498       .  S
N69          C74   1.354       .  A
N69          C73   1.353       .  A
N69         H101   1.038       .  S
N70          C77   1.352       .  A
N70          C78   1.353       .  A
N71          C76   1.352       .  A
N71          C75   1.354       .  A
N71         H102   1.037       .  S
N72          C79   1.352       .  A
N72          C80   1.351       .  A
C73          C81   1.388       .  A
C73          C89   1.417       .  A
C74          C90   1.414       .  A
C74          C82   1.386       .  A
C75          C83   1.387       .  A
C75          C92   1.415       .  A
C76          C91   1.415       .  A
C76          C84   1.387       .  A
C77          C89   1.415       .  A
C77          C85   1.386       .  A
C78          C92   1.417       .  A
C78          C86   1.386       .  A
C79          C87   1.385       .  A
C79          C90   1.411       .  A
C80          C88   1.387       .  A
C80          C91   1.415       .  A
C81          C82   1.374       .  A
C81          H93   1.082       .  S
C82          H94   1.083       .  S
C83          C84   1.376       .  A
C83          H95   1.082       .  S
C84          H96   1.082       .  S
C85          C86   1.375       .  A
C85          H97   1.082       .  S
C86          H98   1.082       .  S
C87          C88   1.372       .  A
C87          H99   1.082       .  S
C88         H100   1.082       .  S
C89        C1558   1.486       .  S
C90        C1530   1.487       .  S
C91        C1474   1.486       .  S
C92        C1493   1.491       .  S
N103        C108   1.355       .  A
N103        C107   1.356       .  A
N103        H135   1.038       .  S
N104        C111   1.353       .  A
N104        C112   1.352       .  A
N105        C110   1.356       .  A
N105        C109   1.354       .  A
N105        H136   1.038       .  S
N106        C113   1.352       .  A
N106        C114   1.354       .  A
C107        C115   1.386       .  A
C107        C123   1.419       .  A
C108        C124   1.420       .  A
C108        C116   1.388       .  A
C109        C117   1.386       .  A
C109        C126   1.416       .  A
C110        C125   1.420       .  A
C110        C118   1.388       .  A
C111        C123   1.414       .  A
C111        C119   1.386       .  A
C112        C126   1.415       .  A
C112        C120   1.387       .  A
C113        C121   1.386       .  A
C113        C124   1.416       .  A
C114        C122   1.386       .  A
C114        C125   1.417       .  A
C115        C116   1.375       .  A
C115        H127   1.082       .  S
C116        H128   1.082       .  S
C117        C118   1.375       .  A
C117        H129   1.082       .  S
C118        H130   1.082       .  S
C119        C120   1.372       .  A
C119        H131   1.082       .  S
C120        H132   1.082       .  S
C121        C122   1.374       .  A
C121        H133   1.082       .  S
C122        H134   1.082       .  S
C123       C1446   1.493       .  S
C124       C1409   1.490       .  S
C125       C1353   1.498       .  S
C126       C1390   1.487       .  S
N137        C142   1.354       .  A
N137        C141   1.354       .  A
N137        H169   1.039       .  S
N138        C145   1.351       .  A
N138        C146   1.352       .  A
N139        C144   1.353       .  A
N139        C143   1.354       .  A
N139        H170   1.039       .  S
N140        C147   1.353       .  A
N140        C148   1.354       .  A
C141        C149   1.387       .  A
C141        C157   1.415       .  A
C142        C158   1.416       .  A
C142        C150   1.387       .  A
C143        C151   1.387       .  A
C143        C160   1.415       .  A
C144        C159   1.416       .  A
C144        C152   1.387       .  A
C145        C157   1.411       .  A
C145        C153   1.385       .  A
C146        C160   1.415       .  A
C146        C154   1.387       .  A
C147        C155   1.386       .  A
C147        C158   1.417       .  A
C148        C156   1.386       .  A
C148        C159   1.418       .  A
C149        C150   1.376       .  A
C149        H161   1.082       .  S
C150        H162   1.082       .  S
C151        C152   1.377       .  A
C151        H163   1.082       .  S
C152        H164   1.082       .  S
C153        C154   1.374       .  A
C153        H165   1.082       .  S
C154        H166   1.082       .  S
C155        C156   1.376       .  A
C155        H167   1.082       .  S
C156        H168   1.082       .  S
C157       C1297   1.487       .  S
C158       C1325   1.493       .  S
C159       C1269   1.494       .  S
C160       C1250   1.491       .  S
N171        C176   1.351       .  A
N171        C175   1.356       .  A
N171        H203   1.039       .  S
N172        C179   1.351       .  A
N172        C180   1.348       .  A
N173        C178   1.357       .  A
N173        C177   1.354       .  A
N173        H204   1.039       .  S
N174        C181   1.352       .  A
N174        C182   1.354       .  A
C175        C183   1.387       .  A
C175        C191   1.419       .  A
C176        C192   1.413       .  A
C176        C184   1.387       .  A
C177        C185   1.388       .  A
C177        C194   1.419       .  A
C178        C193   1.420       .  A
C178        C186   1.386       .  A
C179        C191   1.410       .  A
C179        C187   1.385       .  A
C180        C194   1.410       .  A
C180        C188   1.388       .  A
C181        C189   1.386       .  A
C181        C192   1.413       .  A
C182        C190   1.386       .  A
C182        C193   1.416       .  A
C183        C184   1.376       .  A
C183        H195   1.082       .  S
C184        H196   1.082       .  S
C185        C186   1.377       .  A
C185        H197   1.082       .  S
C186        H198   1.082       .  S
C187        C188   1.371       .  A
C187        H199   1.082       .  S
C188        H200   1.083       .  S
C189        C190   1.372       .  A
C189        H201   1.082       .  S
C190        H202   1.082       .  S
C191       C1138   1.494       .  S
C192       C1194   1.481       .  S
C193       C1213   1.502       .  S
C194       C1157   1.481       .  S
N205        C210   1.356       .  A
N205        C209   1.356       .  A
N205        H237   1.008       .  S
N206        C213   1.354       .  A
N206        C214   1.354       .  A
N207        C212   1.357       .  A
N207        C211   1.357       .  A
N207        H238   1.010       .  S
N208        C215   1.353       .  A
N208        C216   1.353       .  A
C209        C217   1.387       .  A
C209        C225   1.419       .  A
C210        C226   1.420       .  A
C210        C218   1.388       .  A
C211        C219   1.387       .  A
C211        C228   1.420       .  A
C212        C227   1.422       .  A
C212        C220   1.388       .  A
C213        C225   1.419       .  A
C213        C221   1.386       .  A
C214        C228   1.418       .  A
C214        C222   1.386       .  A
C215        C223   1.387       .  A
C215        C226   1.418       .  A
C216        C224   1.386       .  A
C216        C227   1.417       .  A
C217        C218   1.375       .  A
C217        H229   1.083       .  S
C218        H230   1.083       .  S
C219        C220   1.375       .  A
C219        H231   1.082       .  S
C220        H232   1.083       .  S
C221        C222   1.373       .  A
C221        H233   1.082       .  S
C222        H234   1.082       .  S
C223        C224   1.375       .  A
C223        H235   1.082       .  S
C224        H236   1.082       .  S
C225       C1110   1.492       .  S
C226       C1082   1.490       .  S
C227       C1017   1.492       .  S
C228       C1045   1.493       .  S
O239        C254   1.269       .  A
O239       Al247   1.945       .  S
C240        C961   1.481       .  S
C240        O250   1.264       .  A
C240        O241   1.260       .  A
O241       Al243   1.895       .  S
O242        C244   1.260       .  A
O242       Al243   1.900       .  S
Al243       O251   1.926       .  S
Al243       O253   1.885       .  S
Al243       O252   1.774       .  S
C244       C1726   1.482       .  S
C244        O257   1.266       .  A
O245        C255   1.271       .  A
O245       Al247   1.945       .  S
O246        C259   1.262       .  A
O246       Al256   1.900       .  S
Al247       O260   1.928       .  S
Al247       O257   1.933       .  S
Al247       O252   1.780       .  S
O248        C255   1.260       .  A
O248       Al256   1.890       .  S
O249        C258   1.258       .  A
O249       Al256   1.895       .  S
O250       Al256   1.927       .  S
O251        C258   1.264       .  A
O252       Al256   1.776       .  S
O253        C254   1.262       .  A
C254       C1129   1.493       .  S
C255       C1362   1.492       .  S
C258        C998   1.483       .  S
C259       C1278   1.495       .  S
C259        O260   1.266       .  A
O261        C276   1.267       .  A
O261       Al269   1.941       .  S
C262        C933   1.486       .  S
C262        O272   1.264   1_565  A
C262        O263   1.257       .  A
O263       Al265   1.887   1_556  S
O264        C266   1.264       .  A
O264       Al265   1.907   1_556  S
Al265       O273   1.934       .  S
Al265       O275   1.880       .  S
Al265       O274   1.776       .  S
C266       C1782   1.493       .  S
C266        O279   1.266       .  A
O267        C277   1.266       .  A
O267       Al269   1.934   1_546  S
O268        C281   1.264       .  A
O268       Al278   1.908       .  S
Al269       O282   1.922   1_565  S
Al269       O279   1.921   1_554  S
Al269       O274   1.790       .  S
O270        C277   1.258       .  A
O270       Al278   1.887   1_556  S
O271        C280   1.258   1_545  A
O271       Al278   1.888       .  S
O272       Al278   1.921   1_556  S
O273        C280   1.264       .  A
O274       Al278   1.775   1_565  S
O275        C276   1.258       .  A
C276       C1185   1.475       .  S
C277       C1633   1.481       .  S
C280        C914   1.493       .  S
C281       C1101   1.486       .  S
C281        O282   1.267       .  A
O283        C298   1.263       .  A
O283       Al291   1.921   1_565  S
C284        C821   1.477   1_545  S
C284        O294   1.258       .  A
C284        O285   1.260   1_545  A
O285       Al287   1.910   1_554  S
O286        C288   1.259       .  A
O286       Al287   1.875   1_554  S
Al287       O295   1.893       .  S
Al287       O297   1.903       .  S
Al287       O296   1.785   1_565  S
C288       C1334   1.492       .  S
C288        O301   1.269       .  A
O289        C299   1.266       .  A
O289       Al291   1.918   1_554  S
O290        C303   1.258       .  A
O290       Al300   1.889       .  S
Al291       O304   1.928       .  S
Al291       O301   1.955   1_546  S
Al291       O296   1.793       .  S
O292        C299   1.262       .  A
O292       Al300   1.902   1_554  S
O293        C302   1.262   1_545  A
O293       Al300   1.908       .  S
O294       Al300   1.893   1_554  S
O295        C302   1.260       .  A
O296       Al300   1.783       .  S
O297        C298   1.260       .  A
C298       C1418   1.475       .  S
C299        C886   1.484       .  S
C302        C849   1.476       .  S
C303       C1549   1.488       .  S
C303        O304   1.265       .  A
O305        C320   1.268       .  A
O305       Al313   1.928       .  S
C306        C737   1.492       .  S
C306        O316   1.257       .  A
C306        O307   1.264       .  A
O307       Al309   1.928       .  S
O308        C310   1.261       .  A
O308       Al309   1.892       .  S
Al309       O317   1.904       .  S
Al309       O319   1.908       .  S
Al309       O318   1.781       .  S
C310       C1502   1.497       .  S
C310        O323   1.267       .  A
O311        C321   1.266       .  A
O311       Al313   1.915       .  S
O312        C325   1.258       .  A
O312       Al322   1.889       .  S
Al313       O326   1.947       .  S
Al313       O323   1.946       .  S
Al313       O318   1.793       .  S
O314        C321   1.263       .  A
O314       Al322   1.899       .  S
O315        C324   1.263       .  A
O315       Al322   1.912       .  S
O316       Al322   1.894       .  S
O317        C324   1.260       .  A
O318       Al322   1.781       .  S
O319        C320   1.263       .  A
C320        C802   1.481       .  S
C321       C1577   1.483       .  S
C324        C774   1.494       .  S
C325       C1054   1.493       .  S
C325        O326   1.266       .  A
C327        C765   1.575   1_565  S
C327        C830   1.570       .  S
C327        C905   1.582   1_565  S
C327        C989   1.581       .  S
C328        C746   1.584   1_565  S
C328        C858   1.569       .  S
C328        C942   1.578       .  S
C328        C970   1.575       .  S
O329        C344   1.266       .  A
O329       Al337   1.940       .  S
C330        C709   1.482       .  S
C330        O340   1.259       .  A
C330        O331   1.262       .  A
O331       Al333   1.910       .  S
O332        C334   1.260       .  A
O332       Al333   1.879       .  S
Al333       O341   1.882       .  S
Al333       O343   1.903       .  S
Al333       O342   1.775       .  S
C334       C1166   1.484       .  S
C334        O347   1.270       .  A
O335        C345   1.261       .  A
O335       Al337   1.914       .  S
O336        C349   1.261       .  A
O336       Al346   1.892       .  S
Al337       O350   1.938       .  S
Al337       O347   1.939       .  S
Al337       O342   1.779       .  S
O338        C345   1.258       .  A
O338       Al346   1.900       .  S
O339        C348   1.264       .  A
O339       Al346   1.923       .  S
O340       Al346   1.902       .  S
O341        C348   1.260       .  A
O342       Al346   1.783       .  S
O343        C344   1.260       .  A
C344       C1698   1.491       .  S
C345       C1026   1.469       .  S
C348        C690   1.465       .  S
C349       C1605   1.495       .  S
C349        O350   1.270       .  A
O351        C366   1.262       .  A
O351       Al359   1.915   1_554  S
C352        C653   1.484       .  S
C352        O362   1.260   1_455  A
C352        O353   1.262       .  A
O353       Al355   1.918       .  S
O354        C356   1.262       .  A
O354       Al355   1.896       .  S
Al355       O363   1.912   1_556  S
Al355       O365   1.899   1_556  S
Al355       O364   1.785       .  S
C356       C1437   1.497       .  S
C356        O369   1.271       .  A
O357        C367   1.263       .  A
O357       Al359   1.915   1_655  S
O358        C371   1.259       .  A
O358       Al368   1.889       .  S
Al359       O372   1.950   1_456  S
Al359       O369   1.945       .  S
Al359       O364   1.785       .  S
O360        C367   1.261       .  A
O360       Al368   1.914   1_556  S
O361        C370   1.264   1_655  A
O361       Al368   1.913       .  S
O362       Al368   1.888   1_556  S
O363        C370   1.263       .  A
O364       Al368   1.776   1_456  S
O365        C366   1.258       .  A
C366       C1306   1.469       .  S
C367       C1745   1.494       .  S
C370        C634   1.490       .  S
C371       C1222   1.487       .  S
C371        O372   1.269       .  A
O373        C388   1.266       .  A
O373       Al381   1.921   1_654  S
C374        C569   1.485       .  S
C374        O384   1.259       .  A
C374        O375   1.261   1_455  A
O375       Al377   1.915       .  S
O376        C378   1.257       .  A
O376       Al377   1.881       .  S
Al377       O385   1.881   1_556  S
Al377       O387   1.910   1_556  S
Al377       O386   1.784   1_655  S
C378       C1670   1.477       .  S
C378        O391   1.263       .  A
O379        C389   1.263       .  A
O379       Al381   1.921       .  S
O380        C393   1.260       .  A
O380       Al390   1.886       .  S
Al381       O394   1.941   1_556  S
Al381       O391   1.922   1_455  S
Al381       O386   1.791       .  S
O382        C389   1.259       .  A
O382       Al390   1.894   1_556  S
O383        C392   1.258   1_455  A
O383       Al390   1.900       .  S
O384       Al390   1.888   1_556  S
O385        C392   1.256       .  A
O386       Al390   1.778   1_556  S
O387        C388   1.264       .  A
C388       C1073   1.482       .  S
C389       C1521   1.470       .  S
C392        C541   1.461       .  S
C393        C597   1.491       .  S
C393        O394   1.266       .  A
O395        C410   1.261       .  A
O395       Al403   1.911       .  S
C396        C485   1.468       .  S
C396        O406   1.258       .  A
C396        O397   1.264       .  A
O397       Al399   1.924       .  S
O398        C400   1.259       .  A
O398       Al399   1.876       .  S
Al399       O407   1.892       .  S
Al399       O409   1.888       .  S
Al399       O408   1.773       .  S
C400        C522   1.493       .  S
C400        O413   1.273       .  A
O401        C411   1.262       .  A
O401       Al403   1.919       .  S
O402        C415   1.261       .  A
O402       Al412   1.870       .  S
Al403       O416   1.956       .  S
Al403       O413   1.953       .  S
Al403       O408   1.785       .  S
O404        C411   1.258       .  A
O404       Al412   1.891       .  S
O405        C414   1.263       .  A
O405       Al412   1.932       .  S
O406       Al412   1.890       .  S
O407        C414   1.257       .  A
O408       Al412   1.775       .  S
O409        C410   1.258       .  A
C410       C1465   1.476       .  S
C411       C1241   1.480       .  S
C414        C466   1.471       .  S
C415       C1381   1.492       .  S
C415        O416   1.273       .  A
C417        C494   1.577   1_655  S
C417        C550   1.566       .  S
C417        C625   1.581       .  S
C417        C718   1.561       .  S
C418        C457   1.569       .  S
C418        C578   1.568       .  S
C418        C662   1.566   1_455  S
C418        C681   1.565   1_455  S
N419        C424   1.353       .  A
N419        C423   1.355       .  A
N419        H451   1.036       .  S
N420        C427   1.354       .  A
N420        C428   1.353       .  A
N421        C426   1.357       .  A
N421        C425   1.356       .  A
N421        H452   1.037       .  S
N422        C429   1.354       .  A
N422        C430   1.354       .  A
C423        C431   1.387       .  A
C423        C439   1.416       .  A
C424        C440   1.417       .  A
C424        C432   1.388       .  A
C425        C433   1.387       .  A
C425        C442   1.421       .  A
C426        C441   1.421       .  A
C426        C434   1.387       .  A
C427        C439   1.417       .  A
C427        C435   1.386       .  A
C428        C442   1.417       .  A
C428        C436   1.387       .  A
C429        C437   1.386       .  A
C429        C440   1.417       .  A
C430        C438   1.387       .  A
C430        C441   1.418       .  A
C431        C432   1.374       .  A
C431        H443   1.082       .  S
C432        H444   1.082       .  S
C433        C434   1.377       .  A
C433        H445   1.082       .  S
C434        H446   1.082       .  S
C435        C436   1.373       .  A
C435        H447   1.082       .  S
C436        H448   1.082       .  S
C437        C438   1.373       .  A
C437        H449   1.082       .  S
C438        H450   1.082       .  S
C439        C606   1.491       .  S
C440        C877   1.489       .  S
C441        C793   1.497       .  S
C442        C513   1.492       .  S
C453        C454   1.394       .  A
C453        C458   1.398       .  A
C453        H463   1.083       .  S
C454        C455   1.407       .  A
C454        C459   1.490       .  S
C455        C456   1.402       .  A
C455        N460   1.429       .  S
C456        C457   1.416       .  A
C456        H461   1.080       .  S
C457        C458   1.437       .  A
C458        N462   1.433       .  S
C459        C464   1.417       .  A
C459        C468   1.404       .  A
N460        O475   1.262       .  A
N460        O476   1.262       .  A
N462        O473   1.262   1_455  A
N462        O474   1.262       .  A
C464        C465   1.400       .  A
C464        N469   1.430       .  S
C465        C466   1.399       .  A
C465        H470   1.084       .  S
C466        C467   1.408       .  A
C467        C468   1.400       .  A
C467        N471   1.429       .  S
C468        H472   1.083       .  S
N469        O479   1.262       .  A
N469        O480   1.262       .  A
N471        O477   1.262       .  A
N471        O478   1.261       .  A
C481        C482   1.405       .  A
C481        C486   1.400       .  A
C481        H491   1.082       .  S
C482        C483   1.419       .  A
C482        C487   1.492       .  S
C483        C484   1.396       .  A
C483        N488   1.432       .  S
C484        C485   1.397       .  A
C484        H489   1.084       .  S
C485        C486   1.410       .  A
C486        N490   1.431       .  S
C487        C492   1.410       .  A
C487        C496   1.395       .  A
N488        O503   1.262       .  A
N488        O504   1.262       .  A
N490        O501   1.262       .  A
N490        O502   1.262       .  A
C492        C493   1.402       .  A
C492        N497   1.429       .  S
C493        C494   1.417       .  A
C493        H498   1.078       .  S
C494        C495   1.432       .  A
C495        C496   1.395       .  A
C495        N499   1.428       .  S
C496        H500   1.083       .  S
N497        O507   1.262       .  A
N497        O508   1.262       .  A
N499        O505   1.263       .  A
N499        O506   1.262       .  A
C509        C510   1.405       .  A
C509        C514   1.403       .  A
C509        H519   1.083       .  S
C510        C511   1.414       .  A
C510        C515   1.491       .  S
C511        C512   1.403       .  A
C511        N516   1.429       .  S
C512        C513   1.402       .  A
C512        H517   1.084       .  S
C513        C514   1.408       .  A
C514        N518   1.429       .  S
C515        C520   1.411       .  A
C515        C524   1.401       .  A
N516        O531   1.262       .  A
N516        O532   1.262       .  A
N518        O529   1.262       .  A
N518        O530   1.262       .  A
C520        C521   1.405       .  A
C520        N525   1.429       .  S
C521        C522   1.406       .  A
C521        H526   1.084       .  S
C522        C523   1.420       .  A
C523        C524   1.401       .  A
C523        N527   1.430       .  S
C524        H528   1.083       .  S
N525        O535   1.262       .  A
N525        O536   1.262       .  A
N527        O533   1.261       .  A
N527        O534   1.262       .  A
C537        C538   1.402       .  A
C537        C542   1.395       .  A
C537        H547   1.084       .  S
C538        C539   1.410   1_655  A
C538        C543   1.473   1_655  S
C539        C540   1.399       .  A
C539        N544   1.432       .  S
C540        C541   1.402   1_455  A
C540        H545   1.084       .  S
C541        C542   1.405       .  A
C542        N546   1.428       .  S
C543        C548   1.402       .  A
C543        C552   1.395   1_455  A
N544        O559   1.262       .  A
N544        O560   1.262       .  A
N546        O557   1.261       .  A
N546        O558   1.261       .  A
C548        C549   1.393       .  A
C548        N553   1.431       .  S
C549        C550   1.420   1_455  A
C549        H554   1.084       .  S
C550        C551   1.439       .  A
C551        C552   1.402       .  A
C551        N555   1.436       .  S
C552        H556   1.084       .  S
N553        O563   1.262       .  A
N553        O564   1.262       .  A
N555        O561   1.260       .  A
N555        O562   1.263       .  A
C565        C566   1.404   1_655  A
C565        C570   1.401       .  A
C565        H575   1.083       .  S
C566        C567   1.410       .  A
C566        C571   1.487       .  S
C567        C568   1.398       .  A
C567        N572   1.429       .  S
C568        C569   1.405       .  A
C568        H573   1.084       .  S
C569        C570   1.415   1_455  A
C570        N574   1.429       .  S
C571        C576   1.405   1_455  A
C571        C580   1.397       .  A
N572        O587   1.262       .  A
N572        O588   1.262       .  A
N574        O585   1.262       .  A
N574        O586   1.261       .  A
C576        C577   1.399       .  A
C576        N581   1.430       .  S
C577        C578   1.417   1_655  A
C577        H582   1.080       .  S
C578        C579   1.433       .  A
C579        C580   1.400       .  A
C579        N583   1.432       .  S
C580        H584   1.084       .  S
N581        O591   1.262       .  A
N581        O592   1.262       .  A
N583        O589   1.262       .  A
N583        O590   1.262       .  A
C593        C594   1.402       .  A
C593        C598   1.407       .  A
C593        H603   1.084       .  S
C594        C595   1.405       .  A
C594        C599   1.482       .  S
C595        C596   1.399       .  A
C595        N600   1.428       .  S
C596        C597   1.408       .  A
C596        H601   1.084       .  S
C597        C598   1.417       .  A
C598        N602   1.429       .  S
C599        C604   1.409       .  A
C599        C608   1.403       .  A
N600        O615   1.262       .  A
N600        O616   1.262       .  A
N602        O613   1.262       .  A
N602        O614   1.262       .  A
C604        C605   1.404       .  A
C604        N609   1.428       .  S
C605        C606   1.404       .  A
C605        H610   1.084       .  S
C606        C607   1.408       .  A
C607        C608   1.402       .  A
C607        N611   1.428       .  S
C608        H612   1.084       .  S
N609        O619   1.262       .  A
N609        O620   1.262       .  A
N611        O617   1.262       .  A
N611        O618   1.262       .  A
C621        C622   1.398       .  A
C621        C626   1.408   1_455  A
C621        H631   1.084   1_455  S
C622        C623   1.399       .  A
C622        C627   1.482       .  S
C623        C624   1.396   1_455  A
C623        N628   1.430       .  S
C624        C625   1.422       .  A
C624        H629   1.077       .  S
C625        C626   1.435       .  A
C626        N630   1.432       .  S
C627        C632   1.405   1_455  A
C627        C636   1.403       .  A
N628        O643   1.262       .  A
N628        O644   1.261   1_455  A
N630        O641   1.262       .  A
N630        O642   1.262   1_655  A
C632        C633   1.398       .  A
C632        N637   1.429       .  S
C633        C634   1.408   1_655  A
C633        H638   1.084       .  S
C634        C635   1.416       .  A
C635        C636   1.407       .  A
C635        N639   1.429       .  S
C636        H640   1.084       .  S
N637        O647   1.262       .  A
N637        O648   1.262       .  A
N639        O645   1.262       .  A
N639        O646   1.262       .  A
C649        C650   1.403       .  A
C649        C654   1.400       .  A
C649        H659   1.084       .  S
C650        C651   1.407   1_455  A
C650        C655   1.481   1_455  S
C651        C652   1.397       .  A
C651        N656   1.429       .  S
C652        C653   1.405   1_655  A
C652        H657   1.080       .  S
C653        C654   1.415       .  A
C654        N658   1.429       .  S
C655        C660   1.402   1_655  A
C655        C664   1.395       .  A
N656        O671   1.262       .  A
N656        O672   1.262       .  A
N658        O669   1.261       .  A
N658        O670   1.262       .  A
C660        C661   1.397       .  A
C660        N665   1.430       .  S
C661        C662   1.416   1_455  A
C661        H666   1.079       .  S
C662        C663   1.435       .  A
C663        C664   1.399       .  A
C663        N667   1.432       .  S
C664        H668   1.084       .  S
N665        O675   1.262       .  A
N665        O676   1.262       .  A
N667        O673   1.262       .  A
N667        O674   1.262       .  A
C677        C678   1.397       .  A
C677        C682   1.396       .  A
C677        H687   1.083       .  S
C678        C679   1.407       .  A
C678        C683   1.489       .  S
C679        C680   1.400       .  A
C679        N684   1.431       .  S
C680        C681   1.416       .  A
C680        H685   1.080       .  S
C681        C682   1.434       .  A
C682        N686   1.433       .  S
C683        C688   1.418       .  A
C683        C692   1.405       .  A
N684        O699   1.262       .  A
N684        O700   1.262       .  A
N686        O697   1.262   1_655  A
N686        O698   1.262       .  A
C688        C689   1.399       .  A
C688        N693   1.432       .  S
C689        C690   1.398       .  A
C689        H694   1.084       .  S
C690        C691   1.406       .  A
C691        C692   1.397       .  A
C691        N695   1.430       .  S
C692        H696   1.083       .  S
N693        O703   1.262       .  A
N693        O704   1.262       .  A
N695        O701   1.262       .  A
N695        O702   1.262       .  A
C705        C706   1.402       .  A
C705        C710   1.402       .  A
C705        H715   1.084       .  S
C706        C707   1.403       .  A
C706        C711   1.473       .  S
C707        C708   1.396       .  A
C707        N712   1.429       .  S
C708        C709   1.407       .  A
C708        H713   1.082       .  S
C709        C710   1.413       .  A
C710        N714   1.429       .  S
C711        C716   1.398       .  A
C711        C720   1.398       .  A
N712        O727   1.262       .  A
N712        O728   1.262       .  A
N714        O725   1.262       .  A
N714        O726   1.262       .  A
C716        C717   1.389       .  A
C716        N721   1.430       .  S
C717        C718   1.417       .  A
C717        H722   1.076       .  S
C718        C719   1.434       .  A
C719        C720   1.407       .  A
C719        N723   1.433       .  S
C720        H724   1.083       .  S
N721        O731   1.262       .  A
N721        O732   1.262       .  A
N723        O729   1.261       .  A
N723        O730   1.262       .  A
C733        C734   1.401       .  A
C733        C738   1.403       .  A
C733        H743   1.084       .  S
C734        C735   1.410       .  A
C734        C739   1.488       .  S
C735        C736   1.406       .  A
C735        N740   1.429       .  S
C736        C737   1.408       .  A
C736        H741   1.084       .  S
C737        C738   1.416       .  A
C738        N742   1.428       .  S
C739        C744   1.399       .  A
C739        C748   1.400       .  A
N740        O755   1.262       .  A
N740        O756   1.262       .  A
N742        O753   1.262       .  A
N742        O754   1.262       .  A
C744        C745   1.396       .  A
C744        N749   1.430       .  S
C745        C746   1.424       .  A
C745        H750   1.077   1_545  S
C746        C747   1.436       .  A
C747        C748   1.411       .  A
C747        N751   1.432       .  S
C748        H752   1.084       .  S
N749        O759   1.262       .  A
N749        O760   1.262       .  A
N751        O757   1.262       .  A
N751        O758   1.262       .  A
C761        C762   1.400       .  A
C761        C766   1.412       .  A
C761        H771   1.084       .  S
C762        C763   1.397       .  A
C762        C767   1.483       .  S
C763        C764   1.393       .  A
C763        N768   1.430       .  S
C764        C765   1.421       .  A
C764        H769   1.074   1_545  S
C765        C766   1.436       .  A
C766        N770   1.433       .  S
C767        C772   1.406       .  A
C767        C776   1.401       .  A
N768        O783   1.262       .  A
N768        O784   1.262       .  A
N770        O781   1.262       .  A
N770        O782   1.261       .  A
C772        C773   1.401       .  A
C772        N777   1.429       .  S
C773        C774   1.409       .  A
C773        H778   1.084       .  S
C774        C775   1.417       .  A
C775        C776   1.405       .  A
C775        N779   1.429       .  S
C776        H780   1.084       .  S
N777        O787   1.262       .  A
N777        O788   1.262       .  A
N779        O785   1.262       .  A
N779        O786   1.262       .  A
C789        C790   1.405       .  A
C789        C794   1.406       .  A
C789        H799   1.083       .  S
C790        C791   1.414       .  A
C790        C795   1.492       .  S
C791        C792   1.403       .  A
C791        N796   1.429       .  S
C792        C793   1.403       .  A
C792        H797   1.084       .  S
C793        C794   1.411       .  A
C794        N798   1.428       .  S
C795        C800   1.414       .  A
C795        C804   1.401       .  A
N796        O811   1.262       .  A
N796        O812   1.262       .  A
N798        O809   1.262       .  A
N798        O810   1.262       .  A
C800        C801   1.410       .  A
C800        N805   1.428       .  S
C801        C802   1.404       .  A
C801        H806   1.084       .  S
C802        C803   1.411       .  A
C803        C804   1.398       .  A
C803        N807   1.429       .  S
C804        H808   1.084       .  S
N805        O815   1.262       .  A
N805        O816   1.262       .  A
N807        O813   1.261       .  A
N807        O814   1.262       .  A
C817        C818   1.403   1_545  A
C817        C822   1.400       .  A
C817        H827   1.084       .  S
C818        C819   1.413       .  A
C818        C823   1.485       .  S
C819        C820   1.403       .  A
C819        N824   1.432       .  S
C820        C821   1.404       .  A
C820        H825   1.084       .  S
C821        C822   1.409   1_565  A
C822        N826   1.430       .  S
C823        C828   1.403       .  A
C823        C832   1.401   1_565  A
N824        O839   1.262       .  A
N824        O840   1.262       .  A
N826        O837   1.262       .  A
N826        O838   1.262       .  A
C828        C829   1.395       .  A
C828        N833   1.432       .  S
C829        C830   1.423       .  A
C829        H834   1.083       .  S
C830        C831   1.433   1_565  A
C831        C832   1.408       .  A
C831        N835   1.435       .  S
C832        H836   1.084       .  S
N833        O843   1.262       .  A
N833        O844   1.262       .  A
N835        O841   1.262       .  A
N835        O842   1.260       .  A
C845        C846   1.403       .  A
C845        C850   1.400       .  A
C845        H855   1.084       .  S
C846        C847   1.405   1_565  A
C846        C851   1.475       .  S
C847        C848   1.398       .  A
C847        N852   1.428       .  S
C848        C849   1.404   1_545  A
C848        H853   1.081       .  S
C849        C850   1.410       .  A
C850        N854   1.430       .  S
C851        C856   1.397       .  A
C851        C860   1.399       .  A
N852        O867   1.262       .  A
N852        O868   1.262       .  A
N854        O865   1.262       .  A
N854        O866   1.262       .  A
C856        C857   1.388       .  A
C856        N861   1.431   1_565  S
C857        C858   1.421       .  A
C857        H862   1.076       .  S
C858        C859   1.435       .  A
C859        C860   1.410       .  A
C859        N863   1.432   1_565  S
C860        H864   1.084       .  S
N861        O871   1.262   1_545  A
N861        O872   1.262       .  A
N863        O869   1.261   1_545  A
N863        O870   1.262       .  A
C873        C874   1.404       .  A
C873        C878   1.402       .  A
C873        H883   1.084       .  S
C874        C875   1.410       .  A
C874        C879   1.484       .  S
C875        C876   1.403       .  A
C875        N880   1.429       .  S
C876        C877   1.403       .  A
C876        H881   1.084       .  S
C877        C878   1.407       .  A
C878        N882   1.429       .  S
C879        C884   1.411       .  A
C879        C888   1.399       .  A
N880        O895   1.262       .  A
N880        O896   1.262       .  A
N882        O893   1.262       .  A
N882        O894   1.262       .  A
C884        C885   1.407       .  A
C884        N889   1.429       .  S
C885        C886   1.405       .  A
C885        H890   1.084       .  S
C886        C887   1.414       .  A
C887        C888   1.399       .  A
C887        N891   1.429       .  S
C888        H892   1.084       .  S
N889        O899   1.262       .  A
N889        O900   1.262       .  A
N891        O897   1.262       .  A
N891        O898   1.262       .  A
C901        C902   1.402       .  A
C901        C906   1.412       .  A
C901        H911   1.083       .  S
C902        C903   1.399       .  A
C902        C907   1.484       .  S
C903        C904   1.393       .  A
C903        N908   1.430       .  S
C904        C905   1.422       .  A
C904        H909   1.079       .  S
C905        C906   1.432       .  A
C906        N910   1.432       .  S
C907        C912   1.405       .  A
C907        C916   1.404   1_545  A
N908        O923   1.262   1_545  A
N908        O924   1.262       .  A
N910        O921   1.262       .  A
N910        O922   1.261   1_545  A
C912        C913   1.400       .  A
C912        N917   1.430       .  S
C913        C914   1.408   1_545  A
C913        H918   1.082       .  S
C914        C915   1.417       .  A
C915        C916   1.407       .  A
C915        N919   1.430       .  S
C916        H920   1.084       .  S
N917        O927   1.262       .  A
N917        O928   1.262       .  A
N919        O925   1.262       .  A
N919        O926   1.262       .  A
C929        C930   1.401       .  A
C929        C934   1.400       .  A
C929        H939   1.084       .  S
C930        C931   1.409   1_565  A
C930        C935   1.480       .  S
C931        C932   1.401       .  A
C931        N936   1.430       .  S
C932        C933   1.406   1_545  A
C932        H937   1.084       .  S
C933        C934   1.417       .  A
C934        N938   1.430       .  S
C935        C940   1.404   1_565  A
C935        C944   1.390       .  A
N936        O951   1.262       .  A
N936        O952   1.262       .  A
N938        O949   1.262       .  A
N938        O950   1.262       .  A
C940        C941   1.405       .  A
C940        N945   1.428       .  S
C941        C942   1.417   1_545  A
C941        H946   1.079       .  S
C942        C943   1.436       .  A
C943        C944   1.395       .  A
C943        N947   1.429       .  S
C944        H948   1.085       .  S
N945        O955   1.262       .  A
N945        O956   1.262       .  A
N947        O953   1.263       .  A
N947        O954   1.262       .  A
C957        C958   1.401       .  A
C957        C962   1.399       .  A
C957        H967   1.084       .  S
C958        C959   1.409       .  A
C958        C963   1.480       .  S
C959        C960   1.403       .  A
C959        N964   1.429       .  S
C960        C961   1.407       .  A
C960        H965   1.084       .  S
C961        C962   1.411       .  A
C962        N966   1.428       .  S
C963        C968   1.399       .  A
C963        C972   1.398       .  A
N964        O979   1.262       .  A
N964        O980   1.262       .  A
N966        O977   1.262       .  A
N966        O978   1.262       .  A
C968        C969   1.395       .  A
C968        N973   1.429       .  S
C969        C970   1.423       .  A
C969        H974   1.083       .  S
C970        C971   1.438       .  A
C971        C972   1.410       .  A
C971        N975   1.437       .  S
C972        H976   1.084       .  S
N973        O983   1.262       .  A
N973        O984   1.262       .  A
N975        O981   1.263       .  A
N975        O982   1.260       .  A
C985        C986   1.391       .  A
C985        C990   1.398       .  A
C985        H995   1.084       .  S
C986        C987   1.403       .  A
C986        C991   1.480       .  S
C987        C988   1.402       .  A
C987        N992   1.429       .  S
C988        C989   1.419       .  A
C988        H993   1.078       .  S
C989        C990   1.435       .  A
C990        N994   1.429       .  S
C991        C996   1.411       .  A
C991       C1000   1.401       .  A
N992       O1007   1.262       .  A
N992       O1008   1.262       .  A
N994       O1005   1.263       .  A
N994       O1006   1.262       .  A
C996        C997   1.401       .  A
C996       N1001   1.432       .  S
C997        C998   1.404       .  A
C997       H1002   1.084       .  S
C998        C999   1.415       .  A
C999       C1000   1.401       .  A
C999       N1003   1.430       .  S
C1000      H1004   1.084       .  S
N1001      O1011   1.262       .  A
N1001      O1012   1.262       .  A
N1003      O1009   1.262       .  A
N1003      O1010   1.262       .  A
C1013      C1014   1.405       .  A
C1013      C1018   1.400       .  A
C1013      H1023   1.084       .  S
C1014      C1015   1.412       .  A
C1014      C1019   1.489       .  S
C1015      C1016   1.406       .  A
C1015      N1020   1.429       .  S
C1016      C1017   1.404       .  A
C1016      H1021   1.084       .  S
C1017      C1018   1.407       .  A
C1018      N1022   1.429       .  S
C1019      C1024   1.412       .  A
C1019      C1028   1.407       .  A
N1020      O1035   1.262       .  A
N1020      O1036   1.262       .  A
N1022      O1033   1.262       .  A
N1022      O1034   1.262       .  A
C1024      C1025   1.399       .  A
C1024      N1029   1.430       .  S
C1025      C1026   1.399       .  A
C1025      H1030   1.084       .  S
C1026      C1027   1.407       .  A
C1027      C1028   1.405       .  A
C1027      N1031   1.429       .  S
C1028      H1032   1.083       .  S
N1029      O1039   1.262       .  A
N1029      O1040   1.262       .  A
N1031      O1037   1.262       .  A
N1031      O1038   1.261       .  A
C1041      C1042   1.404       .  A
C1041      C1046   1.404       .  A
C1041      H1051   1.084       .  S
C1042      C1043   1.410       .  A
C1042      C1047   1.487       .  S
C1043      C1044   1.404       .  A
C1043      N1048   1.428       .  S
C1044      C1045   1.403       .  A
C1044      H1049   1.084       .  S
C1045      C1046   1.409       .  A
C1046      N1050   1.429       .  S
C1047      C1052   1.407       .  A
C1047      C1056   1.403       .  A
N1048      O1063   1.262       .  A
N1048      O1064   1.262       .  A
N1050      O1061   1.262       .  A
N1050      O1062   1.262       .  A
C1052      C1053   1.403       .  A
C1052      N1057   1.429       .  S
C1053      C1054   1.408       .  A
C1053      H1058   1.084       .  S
C1054      C1055   1.416       .  A
C1055      C1056   1.407       .  A
C1055      N1059   1.429       .  S
C1056      H1060   1.084       .  S
N1057      O1067   1.262       .  A
N1057      O1068   1.262       .  A
N1059      O1065   1.262       .  A
N1059      O1066   1.262       .  A
C1069      C1070   1.397       .  A
C1069      C1074   1.399       .  A
C1069      H1079   1.084       .  S
C1070      C1071   1.410       .  A
C1070      C1075   1.481       .  S
C1071      C1072   1.408       .  A
C1071      N1076   1.428       .  S
C1072      C1073   1.405       .  A
C1072      H1077   1.084       .  S
C1073      C1074   1.412       .  A
C1074      N1078   1.428       .  S
C1075      C1080   1.409       .  A
C1075      C1084   1.403       .  A
N1076      O1091   1.262       .  A
N1076      O1092   1.262       .  A
N1078      O1089   1.262       .  A
N1078      O1090   1.261       .  A
C1080      C1081   1.404       .  A
C1080      N1085   1.428       .  S
C1081      C1082   1.404       .  A
C1081      H1086   1.084       .  S
C1082      C1083   1.408       .  A
C1083      C1084   1.401       .  A
C1083      N1087   1.428       .  S
C1084      H1088   1.084       .  S
N1085      O1095   1.262       .  A
N1085      O1096   1.262       .  A
N1087      O1093   1.262       .  A
N1087      O1094   1.262       .  A
C1097      C1098   1.399       .  A
C1097      C1102   1.398       .  A
C1097      H1107   1.084       .  S
C1098      C1099   1.410       .  A
C1098      C1103   1.485       .  S
C1099      C1100   1.408       .  A
C1099      N1104   1.427       .  S
C1100      C1101   1.406       .  A
C1100      H1105   1.084       .  S
C1101      C1102   1.414       .  A
C1102      N1106   1.428       .  S
C1103      C1108   1.410       .  A
C1103      C1112   1.404       .  A
N1104      O1119   1.262       .  A
N1104      O1120   1.262       .  A
N1106      O1117   1.262       .  A
N1106      O1118   1.261       .  A
C1108      C1109   1.399       .  A
C1108      N1113   1.428       .  S
C1109      C1110   1.401       .  A
C1109      H1114   1.084       .  S
C1110      C1111   1.412       .  A
C1111      C1112   1.407       .  A
C1111      N1115   1.429       .  S
C1112      H1116   1.084       .  S
N1113      O1123   1.262       .  A
N1113      O1124   1.262       .  A
N1115      O1121   1.262       .  A
N1115      O1122   1.262       .  A
C1125      C1126   1.404       .  A
C1125      C1130   1.407       .  A
C1125      H1135   1.084       .  S
C1126      C1127   1.405       .  A
C1126      C1131   1.484       .  S
C1127      C1128   1.397       .  A
C1127      N1132   1.429       .  S
C1128      C1129   1.408       .  A
C1128      H1133   1.083       .  S
C1129      C1130   1.417       .  A
C1130      N1134   1.430       .  S
C1131      C1136   1.408       .  A
C1131      C1140   1.403       .  A
N1132      O1147   1.262       .  A
N1132      O1148   1.262       .  A
N1134      O1145   1.262       .  A
N1134      O1146   1.262       .  A
C1136      C1137   1.402       .  A
C1136      N1141   1.429       .  S
C1137      C1138   1.405       .  A
C1137      H1142   1.084       .  S
C1138      C1139   1.410       .  A
C1139      C1140   1.403       .  A
C1139      N1143   1.430       .  S
C1140      H1144   1.084       .  S
N1141      O1151   1.262       .  A
N1141      O1152   1.262       .  A
N1143      O1149   1.262       .  A
N1143      O1150   1.262       .  A
C1153      C1154   1.405       .  A
C1153      C1158   1.402       .  A
C1153      H1163   1.084       .  S
C1154      C1155   1.410       .  A
C1154      C1159   1.476       .  S
C1155      C1156   1.396       .  A
C1155      N1160   1.430       .  S
C1156      C1157   1.400       .  A
C1156      H1161   1.084       .  S
C1157      C1158   1.406       .  A
C1158      N1162   1.428       .  S
C1159      C1164   1.409       .  A
C1159      C1168   1.396       .  A
N1160      O1175   1.262       .  A
N1160      O1176   1.262       .  A
N1162      O1173   1.262       .  A
N1162      O1174   1.262       .  A
C1164      C1165   1.402       .  A
C1164      N1169   1.430       .  S
C1165      C1166   1.406       .  A
C1165      H1170   1.084       .  S
C1166      C1167   1.417       .  A
C1167      C1168   1.396       .  A
C1167      N1171   1.429       .  S
C1168      H1172   1.084       .  S
N1169      O1179   1.262       .  A
N1169      O1180   1.262       .  A
N1171      O1177   1.262       .  A
N1171      O1178   1.262       .  A
C1181      C1182   1.401       .  A
C1181      C1186   1.402       .  A
C1181      H1191   1.084       .  S
C1182      C1183   1.406       .  A
C1182      C1187   1.476       .  S
C1183      C1184   1.399       .  A
C1183      N1188   1.428       .  S
C1184      C1185   1.403       .  A
C1184      H1189   1.084       .  S
C1185      C1186   1.413       .  A
C1186      N1190   1.429       .  S
C1187      C1192   1.409       .  A
C1187      C1196   1.402       .  A
N1188      O1203   1.262       .  A
N1188      O1204   1.262       .  A
N1190      O1201   1.262       .  A
N1190      O1202   1.262       .  A
C1192      C1193   1.399       .  A
C1192      N1197   1.429       .  S
C1193      C1194   1.400       .  A
C1193      H1198   1.084       .  S
C1194      C1195   1.407       .  A
C1195      C1196   1.400       .  A
C1195      N1199   1.428       .  S
C1196      H1200   1.084       .  S
N1197      O1207   1.262       .  A
N1197      O1208   1.262       .  A
N1199      O1205   1.262       .  A
N1199      O1206   1.262       .  A
C1209      C1210   1.403       .  A
C1209      C1214   1.407       .  A
C1209      H1219   1.084       .  S
C1210      C1211   1.410       .  A
C1210      C1215   1.490       .  S
C1211      C1212   1.402       .  A
C1211      N1216   1.429       .  S
C1212      C1213   1.404       .  A
C1212      H1217   1.084       .  S
C1213      C1214   1.416       .  A
C1214      N1218   1.430       .  S
C1215      C1220   1.411       .  A
C1215      C1224   1.402       .  A
N1216      O1231   1.262       .  A
N1216      O1232   1.262       .  A
N1218      O1229   1.262       .  A
N1218      O1230   1.262       .  A
C1220      C1221   1.406       .  A
C1220      N1225   1.428       .  S
C1221      C1222   1.405       .  A
C1221      H1226   1.084       .  S
C1222      C1223   1.414       .  A
C1223      C1224   1.404       .  A
C1223      N1227   1.432       .  S
C1224      H1228   1.084       .  S
N1225      O1235   1.262       .  A
N1225      O1236   1.262       .  A
N1227      O1233   1.262       .  A
N1227      O1234   1.262       .  A
C1237      C1238   1.404       .  A
C1237      C1242   1.406       .  A
C1237      H1247   1.084       .  S
C1238      C1239   1.404       .  A
C1238      C1243   1.478       .  S
C1239      C1240   1.396       .  A
C1239      N1244   1.429       .  S
C1240      C1241   1.406       .  A
C1240      H1245   1.084       .  S
C1241      C1242   1.411       .  A
C1242      N1246   1.428       .  S
C1243      C1248   1.408       .  A
C1243      C1252   1.402       .  A
N1244      O1259   1.262       .  A
N1244      O1260   1.262       .  A
N1246      O1257   1.261       .  A
N1246      O1258   1.262       .  A
C1248      C1249   1.399       .  A
C1248      N1253   1.429       .  S
C1249      C1250   1.403       .  A
C1249      H1254   1.084       .  S
C1250      C1251   1.412       .  A
C1251      C1252   1.403       .  A
C1251      N1255   1.429       .  S
C1252      H1256   1.084       .  S
N1253      O1263   1.262       .  A
N1253      O1264   1.262       .  A
N1255      O1261   1.262       .  A
N1255      O1262   1.262       .  A
C1265      C1266   1.404       .  A
C1265      C1270   1.400       .  A
C1265      H1275   1.084       .  S
C1266      C1267   1.411       .  A
C1266      C1271   1.490       .  S
C1267      C1268   1.406       .  A
C1267      N1272   1.428       .  S
C1268      C1269   1.405       .  A
C1268      H1273   1.084       .  S
C1269      C1270   1.410       .  A
C1270      N1274   1.429       .  S
C1271      C1276   1.407       .  A
C1271      C1280   1.406       .  A
N1272      O1287   1.262       .  A
N1272      O1288   1.262       .  A
N1274      O1285   1.262       .  A
N1274      O1286   1.262       .  A
C1276      C1277   1.396       .  A
C1276      N1281   1.431       .  S
C1277      C1278   1.409       .  A
C1277      H1282   1.083       .  S
C1278      C1279   1.416       .  A
C1279      C1280   1.410       .  A
C1279      N1283   1.428       .  S
C1280      H1284   1.083       .  S
N1281      O1291   1.262       .  A
N1281      O1292   1.262       .  A
N1283      O1289   1.262       .  A
N1283      O1290   1.262       .  A
C1293      C1294   1.404       .  A
C1293      C1298   1.399       .  A
C1293      H1303   1.084       .  S
C1294      C1295   1.409       .  A
C1294      C1299   1.484       .  S
C1295      C1296   1.403       .  A
C1295      N1300   1.428       .  S
C1296      C1297   1.404       .  A
C1296      H1301   1.084       .  S
C1297      C1298   1.408       .  A
C1298      N1302   1.429       .  S
C1299      C1304   1.410       .  A
C1299      C1308   1.406       .  A
N1300      O1315   1.262       .  A
N1300      O1316   1.262       .  A
N1302      O1313   1.262       .  A
N1302      O1314   1.262       .  A
C1304      C1305   1.398       .  A
C1304      N1309   1.430       .  S
C1305      C1306   1.401       .  A
C1305      H1310   1.085       .  S
C1306      C1307   1.407       .  A
C1307      C1308   1.405       .  A
C1307      N1311   1.430       .  S
C1308      H1312   1.083       .  S
N1309      O1319   1.262       .  A
N1309      O1320   1.262       .  A
N1311      O1317   1.262       .  A
N1311      O1318   1.262       .  A
C1321      C1322   1.408       .  A
C1321      C1326   1.400       .  A
C1321      H1331   1.083       .  S
C1322      C1323   1.415       .  A
C1322      C1327   1.498       .  S
C1323      C1324   1.407       .  A
C1323      N1328   1.429       .  S
C1324      C1325   1.404       .  A
C1324      H1329   1.084       .  S
C1325      C1326   1.406       .  A
C1326      N1330   1.429       .  S
C1327      C1332   1.412       .  A
C1327      C1336   1.409       .  A
N1328      O1343   1.262       .  A
N1328      O1344   1.262       .  A
N1330      O1341   1.262       .  A
N1330      O1342   1.262       .  A
C1332      C1333   1.397       .  A
C1332      N1337   1.431       .  S
C1333      C1334   1.405       .  A
C1333      H1338   1.084       .  S
C1334      C1335   1.414       .  A
C1335      C1336   1.410       .  A
C1335      N1339   1.429       .  S
C1336      H1340   1.083       .  S
N1337      O1347   1.262       .  A
N1337      O1348   1.262       .  A
N1339      O1345   1.262       .  A
N1339      O1346   1.262       .  A
C1349      C1350   1.406       .  A
C1349      C1354   1.402       .  A
C1349      H1359   1.083       .  S
C1350      C1351   1.412       .  A
C1350      C1355   1.494       .  S
C1351      C1352   1.405       .  A
C1351      N1356   1.429       .  S
C1352      C1353   1.405       .  A
C1352      H1357   1.084       .  S
C1353      C1354   1.410       .  A
C1354      N1358   1.429       .  S
C1355      C1360   1.412       .  A
C1355      C1364   1.404       .  A
N1356      O1371   1.262       .  A
N1356      O1372   1.262       .  A
N1358      O1369   1.262       .  A
N1358      O1370   1.262       .  A
C1360      C1361   1.403       .  A
C1360      N1365   1.429       .  S
C1361      C1362   1.405       .  A
C1361      H1366   1.084       .  S
C1362      C1363   1.417       .  A
C1363      C1364   1.405       .  A
C1363      N1367   1.430       .  S
C1364      H1368   1.083       .  S
N1365      O1375   1.262       .  A
N1365      O1376   1.262       .  A
N1367      O1373   1.262       .  A
N1367      O1374   1.262       .  A
C1377      C1378   1.401       .  A
C1377      C1382   1.406       .  A
C1377      H1387   1.084       .  S
C1378      C1379   1.404       .  A
C1378      C1383   1.477       .  S
C1379      C1380   1.396       .  A
C1379      N1384   1.430       .  S
C1380      C1381   1.410       .  A
C1380      H1385   1.084       .  S
C1381      C1382   1.416       .  A
C1382      N1386   1.427       .  S
C1383      C1388   1.408       .  A
C1383      C1392   1.401       .  A
N1384      O1399   1.262       .  A
N1384      O1400   1.262       .  A
N1386      O1397   1.262       .  A
N1386      O1398   1.261       .  A
C1388      C1389   1.403       .  A
C1388      N1393   1.428       .  S
C1389      C1390   1.404       .  A
C1389      H1394   1.084       .  S
C1390      C1391   1.408       .  A
C1391      C1392   1.399       .  A
C1391      N1395   1.428       .  S
C1392      H1396   1.084       .  S
N1393      O1403   1.262       .  A
N1393      O1404   1.262       .  A
N1395      O1401   1.262       .  A
N1395      O1402   1.262       .  A
C1405      C1406   1.405       .  A
C1405      C1410   1.398       .  A
C1405      H1415   1.084       .  S
C1406      C1407   1.412       .  A
C1406      C1411   1.490       .  S
C1407      C1408   1.406       .  A
C1407      N1412   1.428       .  S
C1408      C1409   1.404       .  A
C1408      H1413   1.084       .  S
C1409      C1410   1.407       .  A
C1410      N1414   1.429       .  S
C1411      C1416   1.411       .  A
C1411      C1420   1.407       .  A
N1412      O1427   1.262       .  A
N1412      O1428   1.262       .  A
N1414      O1425   1.262       .  A
N1414      O1426   1.262       .  A
C1416      C1417   1.397       .  A
C1416      N1421   1.429       .  S
C1417      C1418   1.400       .  A
C1417      H1422   1.084       .  S
C1418      C1419   1.410       .  A
C1419      C1420   1.408       .  A
C1419      N1423   1.430       .  S
C1420      H1424   1.083       .  S
N1421      O1431   1.262       .  A
N1421      O1432   1.262       .  A
N1423      O1429   1.262       .  A
N1423      O1430   1.262       .  A
C1433      C1434   1.401       .  A
C1433      C1438   1.403       .  A
C1433      H1443   1.084       .  S
C1434      C1435   1.409       .  A
C1434      C1439   1.490       .  S
C1435      C1436   1.407       .  A
C1435      N1440   1.428       .  S
C1436      C1437   1.409       .  A
C1436      H1441   1.083       .  S
C1437      C1438   1.418       .  A
C1438      N1442   1.429       .  S
C1439      C1444   1.411       .  A
C1439      C1448   1.406       .  A
N1440      O1455   1.262       .  A
N1440      O1456   1.262       .  A
N1442      O1453   1.262       .  A
N1442      O1454   1.261       .  A
C1444      C1445   1.402       .  A
C1444      N1449   1.429       .  S
C1445      C1446   1.401       .  A
C1445      H1450   1.084       .  S
C1446      C1447   1.409       .  A
C1447      C1448   1.407       .  A
C1447      N1451   1.428       .  S
C1448      H1452   1.083       .  S
N1449      O1459   1.262       .  A
N1449      O1460   1.262       .  A
N1451      O1457   1.262       .  A
N1451      O1458   1.262       .  A
C1461      C1462   1.403       .  A
C1461      C1466   1.404       .  A
C1461      H1471   1.084       .  S
C1462      C1463   1.404       .  A
C1462      C1467   1.474       .  S
C1463      C1464   1.394       .  A
C1463      N1468   1.429       .  S
C1464      C1465   1.405       .  A
C1464      H1469   1.084       .  S
C1465      C1466   1.411       .  A
C1466      N1470   1.428       .  S
C1467      C1472   1.408       .  A
C1467      C1476   1.401       .  A
N1468      O1483   1.262       .  A
N1468      O1484   1.262       .  A
N1470      O1481   1.262       .  A
N1470      O1482   1.262       .  A
C1472      C1473   1.397       .  A
C1472      N1477   1.430       .  S
C1473      C1474   1.402       .  A
C1473      H1478   1.084       .  S
C1474      C1475   1.411       .  A
C1475      C1476   1.401       .  A
C1475      N1479   1.429       .  S
C1476      H1480   1.084       .  S
N1477      O1487   1.262       .  A
N1477      O1488   1.262       .  A
N1479      O1485   1.262       .  A
N1479      O1486   1.262       .  A
C1489      C1490   1.403       .  A
C1489      C1494   1.402       .  A
C1489      H1499   1.084       .  S
C1490      C1491   1.409       .  A
C1490      C1495   1.486       .  S
C1491      C1492   1.405       .  A
C1491      N1496   1.428       .  S
C1492      C1493   1.404       .  A
C1492      H1497   1.084       .  S
C1493      C1494   1.408       .  A
C1494      N1498   1.428       .  S
C1495      C1500   1.405       .  A
C1495      C1504   1.403       .  A
N1496      O1511   1.262       .  A
N1496      O1512   1.262       .  A
N1498      O1509   1.262       .  A
N1498      O1510   1.262       .  A
C1500      C1501   1.399       .  A
C1500      N1505   1.429       .  S
C1501      C1502   1.409       .  A
C1501      H1506   1.083       .  S
C1502      C1503   1.419       .  A
C1503      C1504   1.409       .  A
C1503      N1507   1.429       .  S
C1504      H1508   1.084       .  S
N1505      O1515   1.262       .  A
N1505      O1516   1.262       .  A
N1507      O1513   1.262       .  A
N1507      O1514   1.262       .  A
C1517      C1518   1.409       .  A
C1517      C1522   1.408       .  A
C1517      H1527   1.083       .  S
C1518      C1519   1.411       .  A
C1518      C1523   1.489       .  S
C1519      C1520   1.393       .  A
C1519      N1524   1.430       .  S
C1520      C1521   1.398       .  A
C1520      H1525   1.084       .  S
C1521      C1522   1.408       .  A
C1522      N1526   1.429       .  S
C1523      C1528   1.412       .  A
C1523      C1532   1.407       .  A
N1524      O1539   1.262       .  A
N1524      O1540   1.262       .  A
N1526      O1537   1.262       .  A
N1526      O1538   1.262       .  A
C1528      C1529   1.404       .  A
C1528      N1533   1.429       .  S
C1529      C1530   1.403       .  A
C1529      H1534   1.084       .  S
C1530      C1531   1.406       .  A
C1531      C1532   1.398       .  A
C1531      N1535   1.429       .  S
C1532      H1536   1.084       .  S
N1533      O1543   1.262       .  A
N1533      O1544   1.262       .  A
N1535      O1541   1.262       .  A
N1535      O1542   1.262       .  A
C1545      C1546   1.399       .  A
C1545      C1550   1.399       .  A
C1545      H1555   1.084       .  S
C1546      C1547   1.407       .  A
C1546      C1551   1.480       .  S
C1547      C1548   1.404       .  A
C1547      N1552   1.428       .  S
C1548      C1549   1.408       .  A
C1548      H1553   1.084       .  S
C1549      C1550   1.416       .  A
C1550      N1554   1.428       .  S
C1551      C1556   1.409       .  A
C1551      C1560   1.403       .  A
N1552      O1567   1.262       .  A
N1552      O1568   1.262       .  A
N1554      O1565   1.262       .  A
N1554      O1566   1.262       .  A
C1556      C1557   1.399       .  A
C1556      N1561   1.429       .  S
C1557      C1558   1.401       .  A
C1557      H1562   1.084       .  S
C1558      C1559   1.409       .  A
C1559      C1560   1.403       .  A
C1559      N1563   1.428       .  S
C1560      H1564   1.084       .  S
N1561      O1571   1.262       .  A
N1561      O1572   1.262       .  A
N1563      O1569   1.262       .  A
N1563      O1570   1.262       .  A
C1573      C1574   1.403       .  A
C1573      C1578   1.404       .  A
C1573      H1583   1.084       .  S
C1574      C1575   1.408       .  A
C1574      C1579   1.480       .  S
C1575      C1576   1.396       .  A
C1575      N1580   1.432       .  S
C1576      C1577   1.406       .  A
C1576      H1581   1.083       .  S
C1577      C1578   1.411       .  A
C1578      N1582   1.427       .  S
C1579      C1584   1.413       .  A
C1579      C1588   1.404       .  A
N1580      O1595   1.262       .  A
N1580      O1596   1.262       .  A
N1582      O1593   1.262       .  A
N1582      O1594   1.262       .  A
C1584      C1585   1.398       .  A
C1584      N1589   1.431       .  S
C1585      C1586   1.399       .  A
C1585      H1590   1.084       .  S
C1586      C1587   1.407       .  A
C1587      C1588   1.402       .  A
C1587      N1591   1.428       .  S
C1588      H1592   1.084       .  S
N1589      O1599   1.262       .  A
N1589      O1600   1.262       .  A
N1591      O1597   1.262       .  A
N1591      O1598   1.262       .  A
C1601      C1602   1.400       .  A
C1601      C1606   1.402       .  A
C1601      H1611   1.084       .  S
C1602      C1603   1.409       .  A
C1602      C1607   1.486       .  S
C1603      C1604   1.405       .  A
C1603      N1608   1.429       .  S
C1604      C1605   1.409       .  A
C1604      H1609   1.083       .  S
C1605      C1606   1.419       .  A
C1606      N1610   1.429       .  S
C1607      C1612   1.411       .  A
C1607      C1616   1.403       .  A
N1608      O1623   1.262       .  A
N1608      O1624   1.262       .  A
N1610      O1621   1.262       .  A
N1610      O1622   1.262       .  A
C1612      C1613   1.403       .  A
C1612      N1617   1.429       .  S
C1613      C1614   1.405       .  A
C1613      H1618   1.084       .  S
C1614      C1615   1.412       .  A
C1615      C1616   1.404       .  A
C1615      N1619   1.429       .  S
C1616      H1620   1.084       .  S
N1617      O1627   1.262       .  A
N1617      O1628   1.262       .  A
N1619      O1625   1.262       .  A
N1619      O1626   1.262       .  A
C1629      C1630   1.402       .  A
C1629      C1634   1.401       .  A
C1629      H1639   1.084       .  S
C1630      C1631   1.411       .  A
C1630      C1635   1.483       .  S
C1631      C1632   1.403       .  A
C1631      N1636   1.431       .  S
C1632      C1633   1.405       .  A
C1632      H1637   1.084       .  S
C1633      C1634   1.413       .  A
C1634      N1638   1.430       .  S
C1635      C1640   1.410       .  A
C1635      C1644   1.403       .  A
N1636      O1651   1.262       .  A
N1636      O1652   1.262       .  A
N1638      O1649   1.262       .  A
N1638      O1650   1.262       .  A
C1640      C1641   1.403       .  A
C1640      N1645   1.429       .  S
C1641      C1642   1.404       .  A
C1641      H1646   1.084       .  S
C1642      C1643   1.410       .  A
C1643      C1644   1.401       .  A
C1643      N1647   1.429       .  S
C1644      H1648   1.084       .  S
N1645      O1655   1.262       .  A
N1645      O1656   1.262       .  A
N1647      O1653   1.262       .  A
N1647      O1654   1.262       .  A
C1657      C1658   1.404       .  A
C1657      C1662   1.401       .  A
C1657      H1667   1.083       .  S
C1658      C1659   1.413       .  A
C1658      C1663   1.483       .  S
C1659      C1660   1.395       .  A
C1659      N1664   1.430       .  S
C1660      C1661   1.399       .  A
C1660      H1665   1.084       .  S
C1661      C1662   1.410       .  A
C1662      N1666   1.429       .  S
C1663      C1668   1.411       .  A
C1663      C1672   1.402       .  A
N1664      O1679   1.262       .  A
N1664      O1680   1.262       .  A
N1666      O1677   1.262       .  A
N1666      O1678   1.262       .  A
C1668      C1669   1.400       .  A
C1668      N1673   1.429       .  S
C1669      C1670   1.404       .  A
C1669      H1674   1.084       .  S
C1670      C1671   1.412       .  A
C1671      C1672   1.397       .  A
C1671      N1675   1.430       .  S
C1672      H1676   1.084       .  S
N1673      O1683   1.262       .  A
N1673      O1684   1.262       .  A
N1675      O1681   1.262       .  A
N1675      O1682   1.262       .  A
C1685      C1686   1.407       .  A
C1685      C1690   1.404       .  A
C1685      H1695   1.083       .  S
C1686      C1687   1.412       .  A
C1686      C1691   1.498       .  S
C1687      C1688   1.407       .  A
C1687      N1692   1.428       .  S
C1688      C1689   1.406       .  A
C1688      H1693   1.084       .  S
C1689      C1690   1.409       .  A
C1690      N1694   1.429       .  S
C1691      C1696   1.410       .  A
C1691      C1700   1.408       .  A
N1692      O1707   1.262       .  A
N1692      O1708   1.262       .  A
N1694      O1705   1.262       .  A
N1694      O1706   1.262       .  A
C1696      C1697   1.400       .  A
C1696      N1701   1.430       .  S
C1697      C1698   1.406       .  A
C1697      H1702   1.085       .  S
C1698      C1699   1.414       .  A
C1699      C1700   1.413       .  A
C1699      N1703   1.431       .  S
C1700      H1704   1.083       .  S
N1701      O1711   1.262       .  A
N1701      O1712   1.262       .  A
N1703      O1709   1.262       .  A
N1703      O1710   1.262       .  A
C1713      C1714   1.403       .  A
C1713      C1718   1.401       .  A
C1713      H1723   1.084       .  S
C1714      C1715   1.411       .  A
C1714      C1719   1.485       .  S
C1715      C1716   1.405       .  A
C1715      N1720   1.430       .  S
C1716      C1717   1.406       .  A
C1716      H1721   1.084       .  S
C1717      C1718   1.410       .  A
C1718      N1722   1.429       .  S
C1719      C1724   1.412       .  A
C1719      C1728   1.399       .  A
N1720      O1735   1.262       .  A
N1720      O1736   1.262       .  A
N1722      O1733   1.262       .  A
N1722      O1734   1.262       .  A
C1724      C1725   1.411       .  A
C1724      N1729   1.431       .  S
C1725      C1726   1.406       .  A
C1725      H1730   1.084       .  S
C1726      C1727   1.414       .  A
C1727      C1728   1.397       .  A
C1727      N1731   1.430       .  S
C1728      H1732   1.084       .  S
N1729      O1739   1.262       .  A
N1729      O1740   1.262       .  A
N1731      O1737   1.262       .  A
N1731      O1738   1.261       .  A
C1741      C1742   1.399       .  A
C1741      C1746   1.399       .  A
C1741      H1751   1.084       .  S
C1742      C1743   1.411       .  A
C1742      C1747   1.488       .  S
C1743      C1744   1.409       .  A
C1743      N1748   1.430       .  S
C1744      C1745   1.409       .  A
C1744      H1749   1.084       .  S
C1745      C1746   1.418       .  A
C1746      N1750   1.430       .  S
C1747      C1752   1.412       .  A
C1747      C1756   1.404       .  A
N1748      O1763   1.262       .  A
N1748      O1764   1.262       .  A
N1750      O1761   1.262       .  A
N1750      O1762   1.262       .  A
C1752      C1753   1.407       .  A
C1752      N1757   1.428       .  S
C1753      C1754   1.403       .  A
C1753      H1758   1.084       .  S
C1754      C1755   1.408       .  A
C1755      C1756   1.399       .  A
C1755      N1759   1.428       .  S
C1756      H1760   1.084       .  S
N1757      O1767   1.262       .  A
N1757      O1768   1.262       .  A
N1759      O1765   1.262       .  A
N1759      O1766   1.262       .  A
C1769      C1770   1.404       .  A
C1769      C1774   1.399       .  A
C1769      H1779   1.084       .  S
C1770      C1771   1.410       .  A
C1770      C1775   1.487       .  S
C1771      C1772   1.405       .  A
C1771      N1776   1.428       .  S
C1772      C1773   1.405       .  A
C1772      H1777   1.084       .  S
C1773      C1774   1.410       .  A
C1774      N1778   1.429       .  S
C1775      C1780   1.407       .  A
C1775      C1784   1.406       .  A
N1776      O1791   1.262       .  A
N1776      O1792   1.262       .  A
N1778      O1789   1.262       .  A
N1778      O1790   1.262       .  A
C1780      C1781   1.394       .  A
C1780      N1785   1.430       .  S
C1781      C1782   1.408       .  A
C1781      H1786   1.083       .  S
C1782      C1783   1.416       .  A
C1783      C1784   1.409       .  A
C1783      N1787   1.428       .  S
C1784      H1788   1.083       .  S
N1785      O1795   1.262       .  A
N1785      O1796   1.262       .  A
N1787      O1793   1.262       .  A
N1787      O1794   1.262       .  A
