geometry optimzed in LAMMPS
_audit_creation_date              2020-11-30 
_audit_creation_method            'lammps2cif' 
_symmetry_space_group_name_H-M    'P1' 
_symmetry_Int_Tables_number       1 
_symmetry_cell_setting            triclinic 
loop_ 
_symmetry_equiv_pos_as_xyz 
  x,y,z 
_cell_length_a                    64.29352302 
_cell_length_b                    64.17875338183799 
_cell_length_c                    38.869580074373886 
_cell_angle_alpha                 89.81267116518197 
_cell_angle_beta                  89.91180684860228 
_cell_angle_gamma                 122.79729540732207 
loop_ 
_atom_site_label 
_atom_site_type_symbol 
_atom_site_fract_x 
_atom_site_fract_y 
_atom_site_fract_z 
_atom_site_charge 
N1          N  0.45909544  0.94345303  0.31342334    -0.27100
N2          N  0.46810156  0.96453958  0.33019292    -0.34900
C3          C  0.47702557  0.98329333  0.30737341     0.01300
C4          C  0.47346880  0.97359876  0.27463556     0.07500
C5          C  0.46200936  0.94827656  0.27939473    -0.05800
H6          H  0.48563218  0.00258193  0.31419895     0.08000
H7          H  0.45645513  0.93439824  0.25964018     0.09200
Cu8        Cu  0.46864219  0.96728783  0.38334676     0.44200
Cu9        Cu  0.44392314  0.90923260  0.33782129     0.42000
Cu10       Cu  0.44235650  0.91002240  0.43110408     0.43900
N11         N  0.46838151  0.96548606  0.43661434    -0.34400
N12         N  0.45870479  0.94446844  0.45400856    -0.28700
C13         C  0.46189834  0.94945585  0.48783622    -0.04800
C14         C  0.47419258  0.97483456  0.49192705     0.07400
C15         C  0.47801070  0.98445132  0.45894721     0.01200
H16         H  0.45587100  0.93560169  0.50790635     0.08900
H17         H  0.48722925  0.00376957  0.45166098     0.08000
N18         N  0.42900773  0.87805437  0.40259431    -0.35900
N19         N  0.43001380  0.87777323  0.36864007    -0.28100
C20         C  0.42071359  0.85435438  0.35828180    -0.03300
C21         C  0.41345732  0.83914439  0.38709917     0.05300
C22         C  0.41886846  0.85483635  0.41471829     0.03400
H23         H  0.41903985  0.84882103  0.33167241     0.08500
H24         H  0.41607357  0.84985080  0.44169902     0.07300
N25         N  0.01802957  0.49955872  0.31390639    -0.27100
N26         N  0.99689237  0.48960639  0.33093815    -0.34900
C27         C  0.97821902  0.48052249  0.30823952     0.01300
C28         C  0.98816931  0.48496143  0.27543956     0.07300
C29         C  0.01342767  0.49709944  0.27997204    -0.05800
H30         H  0.95885002  0.47095344  0.31516270     0.08000
H31         H  0.02743314  0.50325442  0.26015583     0.09200
Cu32       Cu  0.99440197  0.48768231  0.38415266     0.44200
Cu33       Cu  0.05204661  0.51473880  0.33722762     0.42000
Cu34       Cu  0.05247059  0.51370719  0.43006916     0.43900
N35         N  0.99698869  0.48706525  0.43724747    -0.34400
N36         N  0.01812166  0.49662223  0.45400841    -0.28700
C37         C  0.01334729  0.49291897  0.48795736    -0.04800
C38         C  0.98801231  0.48041635  0.49273089     0.07400
C39         C  0.97822022  0.47701747  0.46006435     0.01200
H40         H  0.02731344  0.49884663  0.50765271     0.08900
H41         H  0.95889516  0.46790797  0.45330388     0.08000
N42         N  0.08403731  0.52780491  0.39992176    -0.35900
N43         N  0.08370657  0.52770676  0.36593673    -0.28100
C44         C  0.10681469  0.53738962  0.35399220    -0.03300
C45         C  0.12254172  0.54400555  0.38182153     0.05300
C46         C  0.10746921  0.53779010  0.41054851     0.03400
H47         H  0.11179000  0.53992040  0.32702107     0.08500
H48         H  0.11305998  0.54012998  0.43720784     0.07300
N49         N  0.35624539  0.69454012  0.37794771    -0.27100
N50         N  0.33537528  0.69301302  0.38524928    -0.34900
C51         C  0.34028846  0.71583901  0.39154107     0.01300
C52         C  0.36547326  0.73263966  0.38774970     0.07300
C53         C  0.37500305  0.71849911  0.37891261    -0.05800
H54         H  0.32638499  0.71998458  0.39696760     0.08000
H55         H  0.39412249  0.72515262  0.37331044     0.09200
Cu56       Cu  0.30098565  0.66028409  0.38341659     0.44200
Cu57       Cu  0.35780860  0.66375063  0.36673015     0.42000
Cu58       Cu  0.29861907  0.60570529  0.35347969     0.43900
N59         N  0.26851442  0.62607505  0.37724697    -0.34400
N60         N  0.26744931  0.60625181  0.36533686    -0.28700
C61         C  0.24361506  0.58731945  0.36402417    -0.04800
C62         C  0.22904170  0.59561369  0.37603015     0.07400
C63         C  0.24548311  0.62029265  0.38403793     0.01200
H64         H  0.23740421  0.56879618  0.35549705     0.08900
H65         H  0.24107389  0.63330755  0.39349033     0.08000
N66         N  0.33255838  0.60907261  0.35134600    -0.35900
N67         N  0.35397251  0.62993395  0.35741035    -0.28100
C68         C  0.37193438  0.62516888  0.35790830    -0.03300
C69         C  0.36138558  0.60017972  0.35146279     0.05300
C70         C  0.33639110  0.59058910  0.34739253     0.03400
H71         H  0.39120150  0.63882737  0.36320236     0.08500
H72         H  0.32183219  0.57134019  0.34373433     0.07300
N73         N  0.46431561  0.50090292  0.43244836    -0.27100
N74         N  0.47502109  0.49112777  0.41589916    -0.34900
C75         C  0.48458148  0.48292844  0.43892945     0.01300
C76         C  0.47967361  0.48775147  0.47153676     0.07300
C77         C  0.46686817  0.49922243  0.46652401    -0.05800
H78         H  0.49399221  0.47371224  0.43234643     0.08000
H79         H  0.45940250  0.50533793  0.48614556     0.09200
Cu80       Cu  0.47549619  0.48819132  0.36292165     0.44200
Cu81       Cu  0.44562938  0.51495173  0.40814481     0.42000
Cu82       Cu  0.44183203  0.50922174  0.31582386     0.43900
N83         N  0.47291731  0.48728733  0.30980924    -0.34400
N84         N  0.46067215  0.49515527  0.29270414    -0.28700
C85         C  0.46267725  0.49252490  0.25882905    -0.04800
C86         C  0.47676011  0.48240323  0.25440365     0.07400
C87         C  0.48295244  0.47928258  0.28723273     0.01200
H88         H  0.45440829  0.49756782  0.23894456     0.08900
H89         H  0.49400407  0.47188150  0.29422993     0.08000
N90         N  0.42602622  0.52460801  0.34374628    -0.35900
N91         N  0.42786697  0.52725517  0.37751470    -0.28100
C92         C  0.41727360  0.53948346  0.38747106    -0.03300
C93         C  0.40830945  0.54475348  0.35853464     0.05300
C94         C  0.41403262  0.53485293  0.33131964     0.03400
H95         H  0.41634152  0.54429608  0.41380082     0.08500
H96         H  0.41063141  0.53588817  0.30432364     0.07300
N97         N  0.49652429  0.01797429  0.20356139    -0.27100
N98         N  0.48610302  0.99688720  0.18642342    -0.34900
C99         C  0.47636233  0.97788643  0.20896803     0.01300
C100        C  0.48081315  0.98746628  0.24188423     0.07300
C101        C  0.49362872  0.01292508  0.23749666    -0.05800
H102        H  0.46665698  0.95854929  0.20186140     0.08000
H103        H  0.50033998  0.02679605  0.25747440     0.09200
Cu104      Cu  0.48527498  0.99481946  0.13318956     0.44200
Cu105      Cu  0.51384766  0.05266101  0.18001062     0.42000
Cu106      Cu  0.51283499  0.05279406  0.08664156     0.43900
N107        N  0.48652359  0.99742560  0.07997522    -0.34400
N108        N  0.49665278  0.01861617  0.06289580    -0.28700
C109        C  0.49403681  0.01391784  0.02893660    -0.04800
C110        C  0.48161618  0.98854490  0.02451400     0.07400
C111        C  0.47717886  0.97867045  0.05737283     0.01200
H112        H  0.50047357  0.02793335  0.00902280     0.08900
H113        H  0.46763720  0.95928480  0.06441513     0.08000
N114        N  0.52749174  0.08450199  0.11620075    -0.35900
N115        N  0.52836308  0.08462626  0.15018170    -0.28100
C116        C  0.53938789  0.10816561  0.16116837    -0.03300
C117        C  0.54549108  0.12355820  0.13273873     0.05300
C118        C  0.53769968  0.10785941  0.10468782     0.03400
H119        H  0.54243828  0.11361832  0.18789927     0.08500
H120        H  0.53972147  0.11300021  0.07779536     0.07300
N121        N  0.49818748  0.46242361  0.18258109    -0.27100
N122        N  0.48785644  0.47258868  0.16598914    -0.34900
C123        C  0.47872399  0.48121759  0.18898657     0.01300
C124        C  0.48358431  0.47632745  0.22159768     0.07300
C125        C  0.49595382  0.46442035  0.21664887    -0.05800
H126        H  0.46928602  0.49040948  0.18236320     0.08000
H127        H  0.50266933  0.45752836  0.23629451     0.09200
Cu128      Cu  0.48648060  0.47470362  0.11298336     0.44200
Cu129      Cu  0.51432978  0.44572095  0.15843153     0.42000
Cu130      Cu  0.50955351  0.44306561  0.06598597     0.43900
N131        N  0.48812804  0.47463577  0.05981941    -0.34400
N132        N  0.49675815  0.46309977  0.04268950    -0.28700
C133        C  0.49548031  0.46640171  0.00879627    -0.04800
C134        C  0.48541810  0.48056726  0.00437778     0.07400
C135        C  0.48097598  0.48549705  0.03725276     0.01200
H136        H  0.50111071  0.45869591  0.98887359     0.08900
H137        H  0.47296156  0.49598453  0.04428683     0.08000
N138        N  0.52442577  0.42667219  0.09397224    -0.35900
N139        N  0.52724613  0.42859131  0.12772715    -0.28100
C140        C  0.53955477  0.41804339  0.13760093    -0.03300
C141        C  0.54436345  0.40873877  0.10869308     0.05300
C142        C  0.53445190  0.41448450  0.08151433     0.03400
H143        H  0.54476307  0.41734698  0.16381479     0.08500
H144        H  0.53544225  0.41107572  0.05452495     0.07300
N145        N  0.63089796  0.35570286  0.10803287    -0.27100
N146        N  0.60976135  0.33404814  0.10485371    -0.34900
C147        C  0.59122713  0.33784915  0.10164509     0.01300
C148        C  0.60104854  0.36309343  0.10330124     0.07300
C149        C  0.62630610  0.37381426  0.10719413    -0.05800
H150        H  0.57186437  0.32320156  0.09995766     0.08000
H151        H  0.64037485  0.39332960  0.10973444     0.09200
Cu152      Cu  0.60647037  0.30009796  0.10907686     0.44200
Cu153      Cu  0.66493031  0.35975480  0.11583195     0.42000
Cu154      Cu  0.66185995  0.30310533  0.13550278     0.43900
N155        N  0.60754614  0.26902330  0.12031897    -0.34400
N156        N  0.62769604  0.27026910  0.13101066    -0.28700
C157        C  0.62231773  0.24721421  0.13703185    -0.04800
C158        C  0.59757322  0.23056915  0.12967975     0.07400
C159        C  0.58882481  0.24507224  0.11898265     0.01200
H160        H  0.63566354  0.24291359  0.14524924     0.08900
H161        H  0.57017187  0.23870760  0.11107084     0.08000
N162        N  0.69448621  0.33770137  0.13490043    -0.35900
N163        N  0.69588706  0.35842558  0.12662749    -0.28100
C164        C  0.71982642  0.37725403  0.12669425    -0.03300
C165        C  0.73407598  0.36792022  0.13593216     0.05300
C166        C  0.71736329  0.34278682  0.14085397     0.03400
H167        H  0.72636619  0.39630307  0.12046659     0.08500
H168        H  0.72156417  0.32900690  0.14710108     0.07300
N169        N  0.94477179  0.46114789  0.20428371    -0.27100
N170        N  0.96589928  0.47065762  0.18735167    -0.34900
C171        C  0.98462074  0.48071025  0.21002598     0.01300
C172        C  0.97471779  0.47732313  0.24271733     0.07300
C173        C  0.94943638  0.46487073  0.23814478    -0.05800
H174        H  0.00395920  0.48976879  0.20316821     0.08000
H175        H  0.93542224  0.45895161  0.25789691     0.09200
Cu176      Cu  0.96825544  0.46980845  0.13426946     0.44200
Cu177      Cu  0.91059039  0.44401470  0.18085295     0.42000
Cu178      Cu  0.91009587  0.44305865  0.08811594     0.43900
N179        N  0.96547264  0.46784301  0.08113048    -0.34400
N180        N  0.94433857  0.45811078  0.06431183    -0.28700
C181        C  0.94906737  0.46069405  0.03030936    -0.04800
C182        C  0.97436326  0.47268387  0.02555643     0.07400
C183        C  0.98418646  0.47687755  0.05829739     0.01200
H184        H  0.93513446  0.45475181  0.01056346     0.08900
H185        H  0.00352883  0.48627841  0.06510501     0.08000
N186        N  0.87857711  0.43026295  0.11807599    -0.35900
N187        N  0.87879907  0.43011970  0.15206495    -0.28100
C188        C  0.85570938  0.42073367  0.16391944    -0.03300
C189        C  0.84017319  0.41496244  0.13605104     0.05300
C190        C  0.85530571  0.42118607  0.10736467     0.03400
H191        H  0.85072354  0.41875962  0.19085923     0.08500
H192        H  0.84981099  0.41901108  0.08067628     0.07300
C193        C  0.79861310  0.38670535  0.16261171    -0.21100
C194        C  0.81317659  0.40406069  0.13696008    -0.09100
C195        C  0.80167531  0.41063046  0.11231342     0.29700
C196        C  0.77599265  0.39945845  0.11287130    -0.21100
C197        C  0.76134214  0.38127177  0.13756718    -0.09100
C198        C  0.77291172  0.37522983  0.16280475     0.29800
F199        F  0.75940995  0.35841450  0.18786307    -0.19600
H200        H  0.80707563  0.38152400  0.18205924     0.18100
H201        H  0.76746766  0.40449929  0.09333116     0.18100
F202        F  0.81524952  0.42807605  0.08798530    -0.19600
C203        C  0.58105675  0.40743177  0.12517047    -0.21100
C204        C  0.55886498  0.39714169  0.10682711    -0.09100
C205        C  0.55087412  0.37596364  0.08671220     0.29700
C206        C  0.56473337  0.36506226  0.08558672    -0.21100
C207        C  0.58706840  0.37541083  0.10380900    -0.09100
C208        C  0.59523305  0.39692470  0.12340940     0.29800
F209        F  0.61643044  0.40737549  0.14190214    -0.19600
H210        H  0.58756619  0.42383286  0.14067087     0.18100
H211        H  0.55803026  0.34853987  0.07029771     0.18100
F212        F  0.52928282  0.36535322  0.06907064    -0.19600
C213        C  0.56556381  0.18898504  0.10668428    -0.21100
C214        C  0.58378618  0.20318597  0.13128388    -0.09100
C215        C  0.58883326  0.19099026  0.15689827     0.29700
C216        C  0.57599294  0.16509818  0.15754305    -0.21100
C217        C  0.55823355  0.15090776  0.13238551    -0.09100
C218        C  0.55303375  0.16311918  0.10695820     0.29800
F219        F  0.53550299  0.15011346  0.08275626    -0.19600
H220        H  0.56132967  0.19795527  0.08674847     0.18100
H221        H  0.58029765  0.15614997  0.17742107     0.18100
F222        F  0.60579541  0.20401721  0.18174431    -0.19600
C223        C  0.39282828  0.59298037  0.37602344    -0.21100
C224        C  0.37368280  0.58625905  0.35246255    -0.09100
C225        C  0.36624565  0.56600592  0.33053771     0.29700
C226        C  0.37774270  0.55272988  0.33242132    -0.21100
C227        C  0.39646538  0.55908424  0.35660816    -0.09100
C228        C  0.40400089  0.57944434  0.37834096     0.29800
F229        F  0.42263579  0.58673856  0.40118290    -0.19600
H230        H  0.39889131  0.60851648  0.39314365     0.18100
H231        H  0.37176325  0.53723245  0.31525432     0.18100
F232        F  0.34828164  0.55938575  0.30676955    -0.19600
C233        C  0.16421886  0.57356434  0.40644603    -0.21100
C234        C  0.14971550  0.55622053  0.38104544    -0.09100
C235        C  0.16145339  0.55110992  0.35485741     0.29700
C236        C  0.18724929  0.56352151  0.35392438    -0.21100
C237        C  0.20177246  0.58151345  0.37863431    -0.09100
C238        C  0.19000661  0.58626272  0.40518642     0.29800
F239        F  0.20335957  0.60289351  0.43024472    -0.19600
H240        H  0.15560367  0.57774672  0.42692295     0.18100
H241        H  0.19590531  0.55948861  0.33333014     0.18100
F242        F  0.14805033  0.53388944  0.33044983    -0.19600
C243        C  0.39695381  0.77443181  0.36444550    -0.21100
C244        C  0.37874805  0.75994820  0.38913614    -0.09100
C245        C  0.37278500  0.77173023  0.41410008     0.29700
C246        C  0.38455603  0.79754546  0.41378079    -0.21100
C247        C  0.40208030  0.81197890  0.38820907    -0.09100
C248        C  0.40838322  0.80017333  0.36371528     0.29800
F249        F  0.42585621  0.81348910  0.33935155    -0.19600
H250        H  0.40187551  0.76572800  0.34504978     0.18100
H251        H  0.37950489  0.80619822  0.43307410     0.18100
F252        F  0.35581981  0.75833417  0.43902618    -0.19600
N253        N  0.45905551  0.94343642  0.81342115    -0.27100
N254        N  0.46806218  0.96452280  0.83019121    -0.34900
C255        C  0.47699576  0.98327806  0.80737289     0.01300
C256        C  0.47344505  0.97358498  0.77463495     0.07500
C257        C  0.46197882  0.94826168  0.77939289    -0.05800
H258        H  0.48560527  0.00256671  0.81419943     0.08000
H259        H  0.45642691  0.93438402  0.75963810     0.09200
Cu260      Cu  0.46859230  0.96726947  0.88334507     0.44200
Cu261      Cu  0.44387108  0.90921511  0.83782199     0.42000
Cu262      Cu  0.44228078  0.91000503  0.93110883     0.43900
N263        N  0.46832430  0.96547075  0.93661357    -0.34400
N264        N  0.45863766  0.94445322  0.95401069    -0.28700
C265        C  0.46183231  0.94944268  0.98783793    -0.04800
C266        C  0.47413773  0.97482266  0.99192551     0.07400
C267        C  0.47796091  0.98443790  0.95894401     0.01200
H268        H  0.45579971  0.93558910  0.00790997     0.08900
H269        H  0.48718977  0.00375652  0.95165494     0.08000
N270        N  0.42893830  0.87803721  0.90259957    -0.35900
N271        N  0.42995310  0.87775672  0.86864591    -0.28100
C272        C  0.42066039  0.85433900  0.85828949    -0.03300
C273        C  0.41340082  0.83912878  0.88710693     0.05300
C274        C  0.41880108  0.85481957  0.91472449     0.03400
H275        H  0.41899629  0.84880697  0.83168069     0.08500
H276        H  0.41600269  0.84983396  0.94170544     0.07300
N277        N  0.01802937  0.49956194  0.81390316    -0.27100
N278        N  0.99689394  0.48963110  0.83093450    -0.34900
C279        C  0.97822145  0.48055665  0.80823573     0.01300
C280        C  0.98817004  0.48497983  0.77543631     0.07300
C281        C  0.01342683  0.49709884  0.77996900    -0.05800
H282        H  0.95885333  0.47100334  0.81515895     0.08000
H283        H  0.02743016  0.50323541  0.76015330     0.09200
Cu284      Cu  0.99439962  0.48771686  0.88414915     0.44200
Cu285      Cu  0.05204392  0.51471439  0.83722288     0.42000
Cu286      Cu  0.05245633  0.51369160  0.93006417     0.43900
N287        N  0.99698061  0.48709517  0.93724454    -0.34400
N288        N  0.01811168  0.49663454  0.95400444    -0.28700
C289        C  0.01333742  0.49292948  0.98795285    -0.04800
C290        C  0.98800401  0.48044341  0.99272773     0.07400
C291        C  0.97821262  0.47705666  0.96006223     0.01200
H292        H  0.02730241  0.49884185  0.00764642     0.08900
H293        H  0.95888859  0.46795916  0.95330302     0.08000
N294        N  0.08402231  0.52776566  0.89992673    -0.35900
N295        N  0.08369717  0.52766440  0.86594166    -0.28100
C296        C  0.10680633  0.53733889  0.85400688    -0.03300
C297        C  0.12252730  0.54395251  0.88184330     0.05300
C298        C  0.10745065  0.53774399  0.91056351     0.03400
H299        H  0.11178730  0.53986947  0.82703774     0.08500
H300        H  0.11303647  0.54008754  0.93722516     0.07300
N301        N  0.35622319  0.69453100  0.87792766    -0.27100
N302        N  0.33535128  0.69300083  0.88522813    -0.34900
C303        C  0.34026156  0.71582507  0.89152467     0.01300
C304        C  0.36544609  0.73262799  0.88773855     0.07300
C305        C  0.37497905  0.71849076  0.87889822    -0.05800
H306        H  0.32635636  0.71996780  0.89695425     0.08000
H307        H  0.39409951  0.72514678  0.87330058     0.09200
Cu308      Cu  0.30096210  0.66027110  0.88340359     0.44200
Cu309      Cu  0.35779479  0.66374522  0.86671360     0.42000
Cu310      Cu  0.29860854  0.60569434  0.85350743     0.43900
N311        N  0.26849470  0.62605463  0.87726581    -0.34400
N312        N  0.26743590  0.60623128  0.86537045    -0.28700
C313        C  0.24360494  0.58729148  0.86407380    -0.04800
C314        C  0.22902663  0.59558070  0.87607471     0.07400
C315        C  0.24546157  0.62026464  0.88406371     0.01200
H316        H  0.23739974  0.56876709  0.85555819     0.08900
H317        H  0.24104623  0.63327742  0.89350562     0.08000
N318        N  0.33254730  0.60906440  0.85135920    -0.35900
N319        N  0.35396273  0.62992855  0.85740498    -0.28100
C320        C  0.37192620  0.62516533  0.85789100    -0.03300
C321        C  0.36137613  0.60017412  0.85145730     0.05300
C322        C  0.33637965  0.59058080  0.84740751     0.03400
H323        H  0.39119546  0.63882676  0.86316724     0.08500
H324        H  0.32181980  0.57133089  0.84376247     0.07300
N325        N  0.46426540  0.50086364  0.93244836    -0.27100
N326        N  0.47497246  0.49109013  0.91589914    -0.34900
C327        C  0.48453101  0.48288875  0.93892895     0.01300
C328        C  0.47962035  0.48770837  0.97153634     0.07300
C329        C  0.46681519  0.49917990  0.96652424    -0.05800
H330        H  0.49394280  0.47367364  0.93234526     0.08000
H331        H  0.45934809  0.50529353  0.98614601     0.09200
Cu332      Cu  0.47545257  0.48815736  0.86292211     0.44200
Cu333      Cu  0.44558243  0.51491522  0.90814130     0.42000
Cu334      Cu  0.44178519  0.50917726  0.81581664     0.43900
N335        N  0.47288159  0.48725548  0.80980939    -0.34400
N336        N  0.46063434  0.49511937  0.79270069    -0.28700
C337        C  0.46264932  0.49249670  0.75882596    -0.04800
C338        C  0.47674102  0.48238436  0.75440465     0.07400
C339        C  0.48292786  0.47926082  0.78723580     0.01200
H340        H  0.45438295  0.49754056  0.73893883     0.08900
H341        H  0.49398505  0.47186664  0.79423630     0.08000
N342        N  0.42598536  0.52457151  0.84373430    -0.35900
N343        N  0.42782864  0.52722417  0.87750206    -0.28100
C344        C  0.41724526  0.53946335  0.88745207    -0.03300
C345        C  0.40828447  0.54473358  0.85851260     0.05300
C346        C  0.41399896  0.53482260  0.83130218     0.03400
H347        H  0.41631835  0.54428423  0.91377896     0.08500
H348        H  0.41059811  0.53585595  0.80430561     0.07300
N349        N  0.49653365  0.01796831  0.70356820    -0.27100
N350        N  0.48611180  0.99688255  0.68642682    -0.34900
C351        C  0.47635893  0.97787911  0.70896794     0.01300
C352        C  0.48080241  0.98745569  0.74188567     0.07300
C353        C  0.49362630  0.01291541  0.73750236    -0.05800
H354        H  0.46665037  0.95854250  0.70185788     0.08000
H355        H  0.50033509  0.02678464  0.75748252     0.09200
Cu356      Cu  0.48529873  0.99482043  0.63319304     0.44200
Cu357      Cu  0.51387130  0.05265828  0.68002234     0.42000
Cu358      Cu  0.51285674  0.05279649  0.58665233     0.43900
N359        N  0.48655746  0.99743045  0.57997943    -0.34400
N360        N  0.49668380  0.01862174  0.56290255    -0.28700
C361        C  0.49407485  0.01392611  0.52894276    -0.04800
C362        C  0.48166230  0.98855416  0.52451716     0.07400
C363        C  0.47722207  0.97867738  0.55737471     0.01200
H364        H  0.50051157  0.02794286  0.50903042     0.08900
H365        H  0.46768435  0.95929162  0.56441448     0.08000
N366        N  0.52751680  0.08450230  0.61621478    -0.35900
N367        N  0.52839041  0.08462568  0.65019556    -0.28100
C368        C  0.53941618  0.10816500  0.66118317    -0.03300
C369        C  0.54551735  0.12355816  0.63275423     0.05300
C370        C  0.53772425  0.10785973  0.60470300     0.03400
H371        H  0.54246668  0.11361703  0.68791424     0.08500
H372        H  0.53974321  0.11300037  0.57781049     0.07300
N373        N  0.49820717  0.46244081  0.68258577    -0.27100
N374        N  0.48787407  0.47260322  0.66599209    -0.34900
C375        C  0.47872781  0.48121897  0.68898810     0.01300
C376        C  0.48358110  0.47632311  0.72160005     0.07300
C377        C  0.49596119  0.46442650  0.71665327    -0.05800
H378        H  0.46928466  0.49040547  0.68236315     0.08000
H379        H  0.50267452  0.45753303  0.73630002     0.09200
Cu380      Cu  0.48651185  0.47473114  0.61298584     0.44200
Cu381      Cu  0.51436336  0.44575071  0.65843898     0.42000
Cu382      Cu  0.50960151  0.44310885  0.56599250     0.43900
N383        N  0.48817395  0.47467610  0.55982190    -0.34400
N384        N  0.49681112  0.46314598  0.54269371    -0.28700
C385        C  0.49553882  0.46645144  0.50880027    -0.04800
C386        C  0.48547256  0.48061300  0.50437945     0.07400
C387        C  0.48102271  0.48553720  0.53725357     0.01200
H388        H  0.50117381  0.45874885  0.48887885     0.08900
H389        H  0.47300150  0.49601863  0.54428566     0.08000
N390        N  0.52446218  0.42670494  0.59397909    -0.35900
N391        N  0.52727882  0.42861998  0.62773469    -0.28100
C392        C  0.53958045  0.41806483  0.63760898    -0.03300
C393        C  0.54438808  0.40875970  0.60870063     0.05300
C394        C  0.53448340  0.41451269  0.58152114     0.03400
H395        H  0.54478465  0.41736369  0.66382366     0.08500
H396        H  0.53547547  0.41110586  0.55453133     0.07300
N397        N  0.63090188  0.35570040  0.60804482    -0.27100
N398        N  0.60976386  0.33404701  0.60486367    -0.34900
C399        C  0.59123183  0.33785141  0.60165408     0.01300
C400        C  0.60105622  0.36309626  0.60331201     0.07300
C401        C  0.62631303  0.37381387  0.60720675    -0.05800
H402        H  0.57186857  0.32320576  0.59996467     0.08000
H403        H  0.64038350  0.39332856  0.60974816     0.09200
Cu404      Cu  0.60646681  0.30009330  0.60908598     0.44200
Cu405      Cu  0.66493403  0.35975143  0.61584331     0.42000
Cu406      Cu  0.66185651  0.30310346  0.63551760     0.43900
N407        N  0.60754317  0.26901930  0.62033563    -0.34400
N408        N  0.62769375  0.27026785  0.63103051    -0.28700
C409        C  0.62231825  0.24721462  0.63705590    -0.04800
C410        C  0.59757480  0.23056718  0.62970317     0.07400
C411        C  0.58882371  0.24506716  0.61900116     0.01200
H412        H  0.63566570  0.24291668  0.64527487     0.08900
H413        H  0.57017085  0.23869965  0.61108600     0.08000
N414        N  0.69448586  0.33769470  0.63490910    -0.35900
N415        N  0.69589032  0.35842036  0.62663482    -0.28100
C416        C  0.71983117  0.37724556  0.62669656    -0.03300
C417        C  0.73407747  0.36790750  0.63593254     0.05300
C418        C  0.71736151  0.34277539  0.64085835     0.03400
H419        H  0.72637418  0.39629511  0.62046660     0.08500
H420        H  0.72155897  0.32899292  0.64710512     0.07300
N421        N  0.94477005  0.46114807  0.70428354    -0.27100
N422        N  0.96589809  0.47066372  0.68735100    -0.34900
C423        C  0.98462017  0.48072525  0.71002399     0.01300
C424        C  0.97471747  0.47733863  0.74271515     0.07300
C425        C  0.94943517  0.46487708  0.73814394    -0.05800
H426        H  0.00395918  0.48978851  0.70316536     0.08000
H427        H  0.93542069  0.45895310  0.75789676     0.09200
Cu428      Cu  0.96825501  0.46980746  0.63427034     0.44200
Cu429      Cu  0.91058773  0.44399470  0.68085249     0.42000
Cu430      Cu  0.91009809  0.44303353  0.58811119     0.43900
N431        N  0.96547647  0.46782966  0.58113193    -0.34400
N432        N  0.94434259  0.45808761  0.56431025    -0.28700
C433        C  0.94907316  0.46066324  0.53030825    -0.04800
C434        C  0.97437012  0.47265869  0.52555887     0.07400
C435        C  0.98419194  0.47686342  0.55830162     0.01200
H436        H  0.93514077  0.45471296  0.51055993     0.08900
H437        H  0.00353455  0.48627163  0.56511207     0.08000
N438        N  0.87857738  0.43023337  0.61806969    -0.35900
N439        N  0.87879772  0.43009012  0.65205881    -0.28100
C440        C  0.85570724  0.42070218  0.66391101    -0.03300
C441        C  0.84017211  0.41493000  0.63604123     0.05300
C442        C  0.85530607  0.42115481  0.60735623     0.03400
H443        H  0.85072049  0.41872968  0.69085029     0.08500
H444        H  0.84981268  0.41898094  0.58066718     0.07300
C445        C  0.79861167  0.38667863  0.66260334    -0.21100
C446        C  0.81317604  0.40403107  0.63694936    -0.09100
C447        C  0.80167652  0.41060284  0.61230246     0.29700
C448        C  0.77599465  0.39943631  0.61286358    -0.21100
C449        C  0.76134322  0.38125332  0.63756302    -0.09100
C450        C  0.77291111  0.37520869  0.66279978     0.29800
F451        F  0.75940857  0.35839657  0.68786107    -0.19600
H452        H  0.80707290  0.38149579  0.68205109     0.18100
H453        H  0.76747079  0.40447879  0.59332360     0.18100
F454        F  0.81525178  0.42804578  0.58797189    -0.19600
C455        C  0.58107511  0.40744312  0.62518054    -0.21100
C456        C  0.55888481  0.39715757  0.60683502    -0.09100
C457        C  0.55089125  0.37597964  0.58671845     0.29700
C458        C  0.56474627  0.36507361  0.58559425    -0.21100
C459        C  0.58707982  0.37541760  0.60381914    -0.09100
C460        C  0.59524725  0.39693158  0.62342068     0.29800
F461        F  0.61644334  0.40737830  0.64191574    -0.19600
H462        H  0.58758670  0.42384421  0.64068187     0.18100
H463        H  0.55804123  0.34855137  0.57030408     0.18100
F464        F  0.52930146  0.36537401  0.56907391    -0.19600
C465        C  0.56557803  0.18898176  0.60669947    -0.21100
C466        C  0.58379324  0.20318452  0.63130606    -0.09100
C467        C  0.58884066  0.19099138  0.65692415     0.29700
C468        C  0.57600725  0.16509970  0.65756592    -0.21100
C469        C  0.55825446  0.15090733  0.63240208    -0.09100
C470        C  0.55305481  0.16311654  0.60697063     0.29800
F471        F  0.53553052  0.15010943  0.58276171    -0.19600
H472        H  0.56134437  0.19795027  0.58676029     0.18100
H473        H  0.58031198  0.15615352  0.67744714     0.18100
F474        F  0.60579640  0.20402042  0.68177634    -0.19600
C475        C  0.39284204  0.59299117  0.87597308    -0.21100
C476        C  0.37367463  0.58625423  0.85244484    -0.09100
C477        C  0.36621510  0.56598427  0.83054337     0.29700
C478        C  0.37770880  0.55270495  0.83242200    -0.21100
C479        C  0.39645053  0.55907310  0.85658095    -0.09100
C480        C  0.40401189  0.57945226  0.87828543     0.29800
F481        F  0.42266781  0.58676009  0.90109504    -0.19600
H482        H  0.39892365  0.60854081  0.89307374     0.18100
H483        H  0.37171084  0.53719318  0.81527573     0.18100
F484        F  0.34823049  0.55934880  0.80680391    -0.19600
C485        C  0.16419869  0.57351572  0.90647982    -0.21100
C486        C  0.14970085  0.55616866  0.88107911    -0.09100
C487        C  0.16144415  0.55105841  0.85489946     0.29700
C488        C  0.18724021  0.56347564  0.85397174    -0.21100
C489        C  0.20175783  0.58147245  0.87867906    -0.09100
C490        C  0.18998685  0.58621954  0.90522558     0.29800
F491        F  0.20333533  0.60285454  0.93028182    -0.19600
H492        H  0.15557909  0.57769749  0.92695080     0.18100
H493        H  0.19590063  0.55944416  0.83338225     0.18100
F494        F  0.14804626  0.53383419  0.83049368    -0.19600
C495        C  0.39692412  0.77442560  0.86444890    -0.21100
C496        C  0.37871775  0.75993591  0.88913535    -0.09100
C497        C  0.37274886  0.77171116  0.91410269     0.29700
C498        C  0.38451214  0.79752560  0.91378751    -0.21100
C499        C  0.40203501  0.81196486  0.88821729    -0.09100
C500        C  0.40834646  0.80016618  0.86372351     0.29800
F501        F  0.42582021  0.81348767  0.83936319    -0.19600
H502        H  0.40185095  0.76572710  0.84505154     0.18100
H503        H  0.37945531  0.80617283  0.93308192     0.18100
F504        F  0.35578446  0.75830905  0.93902694    -0.19600
loop_ 
_geom_bond_atom_site_label_1 
_geom_bond_atom_site_label_2 
_geom_bond_distance 
_geom_bond_site_symmetry_2 
_ccdc_geom_bond_type 
N1            N2   1.323       .  A
N1            C5   1.347       .  A
N1           Cu9   2.083       .  S
N2            C3   1.345       .  A
N2           Cu8   2.073       .  S
C3            C4   1.382       .  A
C3            H6   1.081   1_565  S
C4            C5   1.385       .  A
C4          C100   1.473       .  S
C5            H7   1.082       .  S
Cu8          N11   2.073       .  S
Cu9          N19   2.082       .  S
Cu10         N12   2.070       .  S
Cu10         N18   2.070       .  S
N11          N12   1.322       .  A
N11          C15   1.346       .  A
N12          C13   1.344       .  A
C13          C14   1.382       .  A
C13          H16   1.082       .  S
C14          C15   1.384       .  A
C14         C362   1.470       .  S
C15          H17   1.082   1_565  S
N18          N19   1.322       .  A
N18          C22   1.345       .  A
N19          C20   1.345       .  A
C20          C21   1.387       .  A
C20          H23   1.081       .  S
C21          C22   1.384       .  A
C21         C247   1.481       .  S
C22          H24   1.081       .  S
N25          N26   1.322   1_455  A
N25          C29   1.343       .  A
N25         Cu33   2.063       .  S
N26          C27   1.345       .  A
N26         Cu32   2.072       .  S
C27          C28   1.383       .  A
C27          H30   1.082       .  S
C28          C29   1.381   1_655  A
C28         C172   1.468       .  S
C29          H31   1.082       .  S
Cu32         N35   2.073       .  S
Cu33         N43   2.064       .  S
Cu34         N36   2.076       .  S
Cu34         N42   2.075       .  S
N35          N36   1.323   1_655  A
N35          C39   1.345       .  A
N36          C37   1.345       .  A
C37          C38   1.383   1_455  A
C37          H40   1.082       .  S
C38          C39   1.383       .  A
C38         C434   1.471       .  S
C39          H41   1.082       .  S
N42          N43   1.321       .  A
N42          C46   1.345       .  A
N43          C44   1.343       .  A
C44          C45   1.383       .  A
C44          H47   1.081       .  S
C45          C46   1.386       .  A
C45         C234   1.478       .  S
C46          H48   1.081       .  S
N49          N50   1.322       .  A
N49          C53   1.346       .  A
N49         Cu57   2.080       .  S
N50          C51   1.344       .  A
N50         Cu56   2.068       .  S
C51          C52   1.383       .  A
C51          H54   1.082       .  S
C52          C53   1.386       .  A
C52         C244   1.478       .  S
C53          H55   1.082       .  S
Cu56         N59   2.068       .  S
Cu57         N67   2.080       .  S
Cu58         N60   2.074       .  S
Cu58         N66   2.074       .  S
N59          N60   1.322       .  A
N59          C63   1.343       .  A
N60          C61   1.346       .  A
C61          C62   1.386       .  A
C61          H64   1.082       .  S
C62          C63   1.383       .  A
C62         C237   1.478       .  S
C63          H65   1.082       .  S
N66          N67   1.323       .  A
N66          C70   1.345       .  A
N67          C68   1.345       .  A
C68          C69   1.386       .  A
C68          H71   1.082       .  S
C69          C70   1.384       .  A
C69         C224   1.480       .  S
C70          H72   1.082       .  S
N73          N74   1.323       .  A
N73          C77   1.346       .  A
N73         Cu81   2.078       .  S
N74          C75   1.344       .  A
N74         Cu80   2.070       .  S
C75          C76   1.382       .  A
C75          H78   1.081       .  S
C76          C77   1.383       .  A
C76         C386   1.470       .  S
C77          H79   1.082       .  S
Cu80         N83   2.070       .  S
Cu81         N91   2.078       .  S
Cu82         N84   2.068       .  S
Cu82         N90   2.068       .  S
N83          N84   1.322       .  A
N83          C87   1.346       .  A
N84          C85   1.343       .  A
C85          C86   1.382       .  A
C85          H88   1.082       .  S
C86          C87   1.383       .  A
C86         C124   1.469       .  S
C87          H89   1.082       .  S
N90          N91   1.321       .  A
N90          C94   1.345       .  A
N91          C92   1.345       .  A
C92          C93   1.386       .  A
C92          H95   1.081       .  S
C93          C94   1.384       .  A
C93         C227   1.480       .  S
C94          H96   1.081       .  S
N97          N98   1.323   1_545  A
N97         C101   1.346       .  A
N97        Cu105   2.081       .  S
N98          C99   1.346       .  A
N98        Cu104   2.073       .  S
C99         C100   1.383       .  A
C99         H102   1.082       .  S
C100        C101   1.385   1_565  A
C101        H103   1.082       .  S
Cu104       N107   2.073       .  S
Cu105       N115   2.081       .  S
Cu106       N108   2.071       .  S
Cu106       N114   2.071       .  S
N107        N108   1.322   1_565  A
N107        C111   1.344       .  A
N108        C109   1.345       .  A
C109        C110   1.383   1_545  A
C109        H112   1.082       .  S
C110        C111   1.383       .  A
C110        C266   1.470   1_554  S
C111        H113   1.081       .  S
N114        N115   1.322       .  A
N114        C118   1.344       .  A
N115        C116   1.346       .  A
C116        C117   1.387       .  A
C116        H119   1.081       .  S
C117        C118   1.385       .  A
C117        C217   1.481       .  S
C118        H120   1.081       .  S
N121        N122   1.323       .  A
N121        C125   1.346       .  A
N121       Cu129   2.078       .  S
N122        C123   1.343       .  A
N122       Cu128   2.070       .  S
C123        C124   1.381       .  A
C123        H126   1.082       .  S
C124        C125   1.383       .  A
C125        H127   1.082       .  S
Cu128       N131   2.069       .  S
Cu129       N139   2.078       .  S
Cu130       N132   2.071       .  S
Cu130       N138   2.071       .  S
N131        N132   1.322       .  A
N131        C135   1.346       .  A
N132        C133   1.343       .  A
C133        C134   1.382       .  A
C133        H136   1.082   1_554  S
C134        C135   1.383       .  A
C134        C328   1.470   1_554  S
C135        H137   1.082       .  S
N138        N139   1.322       .  A
N138        C142   1.345       .  A
N139        C140   1.346       .  A
C140        C141   1.385       .  A
C140        H143   1.081       .  S
C141        C142   1.383       .  A
C141        C204   1.477       .  S
C142        H144   1.081       .  S
N145        N146   1.323       .  A
N145        C149   1.346       .  A
N145       Cu153   2.082       .  S
N146        C147   1.345       .  A
N146       Cu152   2.078       .  S
C147        C148   1.386       .  A
C147        H150   1.082       .  S
C148        C149   1.387       .  A
C148        C207   1.484       .  S
C149        H151   1.082       .  S
Cu152       N155   2.078       .  S
Cu153       N163   2.081       .  S
Cu154       N156   2.070       .  S
Cu154       N162   2.070       .  S
N155        N156   1.322       .  A
N155        C159   1.346       .  A
N156        C157   1.344       .  A
C157        C158   1.384       .  A
C157        H160   1.082       .  S
C158        C159   1.386       .  A
C158        C214   1.480       .  S
C159        H161   1.082       .  S
N162        N163   1.322       .  A
N162        C166   1.343       .  A
N163        C164   1.347       .  A
C164        C165   1.386       .  A
C164        H167   1.082       .  S
C165        C166   1.383       .  A
C165        C197   1.478       .  S
C166        H168   1.082       .  S
N169        N170   1.322       .  A
N169        C173   1.343       .  A
N169       Cu177   2.065       .  S
N170        C171   1.344       .  A
N170       Cu176   2.072       .  S
C171        C172   1.383       .  A
C171        H174   1.082   1_655  S
C172        C173   1.381       .  A
C173        H175   1.082       .  S
Cu176       N179   2.072       .  S
Cu177       N187   2.065       .  S
Cu178       N180   2.078       .  S
Cu178       N186   2.079       .  S
N179        N180   1.323       .  A
N179        C183   1.345       .  A
N180        C181   1.345       .  A
C181        C182   1.383       .  A
C181        H184   1.082       .  S
C182        C183   1.383       .  A
C182        C290   1.471   1_554  S
C183        H185   1.082   1_655  S
N186        N187   1.321       .  A
N186        C190   1.346       .  A
N187        C188   1.344       .  A
C188        C189   1.383       .  A
C188        H191   1.081       .  S
C189        C190   1.386       .  A
C189        C194   1.479       .  S
C190        H192   1.081       .  S
C193        C194   1.404       .  A
C193        C198   1.398       .  A
C193        H200   1.083       .  S
C194        C195   1.407       .  A
C195        C196   1.399       .  A
C195        F202   1.357       .  S
C196        C197   1.404       .  A
C196        H201   1.083       .  S
C197        C198   1.406       .  A
C198        F199   1.357       .  S
C203        C204   1.402       .  A
C203        C208   1.399       .  A
C203        H210   1.083       .  S
C204        C205   1.405       .  A
C205        C206   1.400       .  A
C205        F212   1.358       .  S
C206        C207   1.406       .  A
C206        H211   1.083       .  S
C207        C208   1.409       .  A
C208        F209   1.356       .  S
C213        C214   1.404       .  A
C213        C218   1.399       .  A
C213        H220   1.083       .  S
C214        C215   1.407       .  A
C215        C216   1.399       .  A
C215        F222   1.357       .  S
C216        C217   1.404       .  A
C216        H221   1.083       .  S
C217        C218   1.408       .  A
C218        F219   1.357       .  S
C223        C224   1.404       .  A
C223        C228   1.398       .  A
C223        H230   1.083       .  S
C224        C225   1.407       .  A
C225        C226   1.400       .  A
C225        F232   1.357       .  S
C226        C227   1.405       .  A
C226        H231   1.083       .  S
C227        C228   1.407       .  A
C228        F229   1.357       .  S
C233        C234   1.403       .  A
C233        C238   1.397       .  A
C233        H240   1.083       .  S
C234        C235   1.408       .  A
C235        C236   1.398       .  A
C235        F242   1.357       .  S
C236        C237   1.403       .  A
C236        H241   1.083       .  S
C237        C238   1.407       .  A
C238        F239   1.357       .  S
C243        C244   1.403       .  A
C243        C248   1.398       .  A
C243        H250   1.084       .  S
C244        C245   1.406       .  A
C245        C246   1.400       .  A
C245        F252   1.358       .  S
C246        C247   1.405       .  A
C246        H251   1.083       .  S
C247        C248   1.407       .  A
C248        F249   1.357       .  S
N253        N254   1.323       .  A
N253        C257   1.347       .  A
N253       Cu261   2.083       .  S
N254        C255   1.345       .  A
N254       Cu260   2.073       .  S
C255        C256   1.382       .  A
C255        H258   1.081   1_565  S
C256        C257   1.385       .  A
C256        C352   1.473       .  S
C257        H259   1.082       .  S
Cu260       N263   2.073       .  S
Cu261       N271   2.082       .  S
Cu262       N264   2.070       .  S
Cu262       N270   2.070       .  S
N263        N264   1.322       .  A
N263        C267   1.346       .  A
N264        C265   1.344       .  A
C265        C266   1.382       .  A
C265        H268   1.082   1_556  S
C266        C267   1.384       .  A
C267        H269   1.082   1_565  S
N270        N271   1.322       .  A
N270        C274   1.345       .  A
N271        C272   1.345       .  A
C272        C273   1.387       .  A
C272        H275   1.081       .  S
C273        C274   1.384       .  A
C273        C499   1.481       .  S
C274        H276   1.081       .  S
N277        N278   1.322   1_455  A
N277        C281   1.343       .  A
N277       Cu285   2.063       .  S
N278        C279   1.345       .  A
N278       Cu284   2.072       .  S
C279        C280   1.383       .  A
C279        H282   1.082       .  S
C280        C281   1.381   1_655  A
C280        C424   1.468       .  S
C281        H283   1.082       .  S
Cu284       N287   2.073       .  S
Cu285       N295   2.064       .  S
Cu286       N288   2.076       .  S
Cu286       N294   2.075       .  S
N287        N288   1.323   1_655  A
N287        C291   1.345       .  A
N288        C289   1.345       .  A
C289        C290   1.383   1_455  A
C289        H292   1.082   1_556  S
C290        C291   1.383       .  A
C291        H293   1.082       .  S
N294        N295   1.321       .  A
N294        C298   1.345       .  A
N295        C296   1.343       .  A
C296        C297   1.384       .  A
C296        H299   1.081       .  S
C297        C298   1.386       .  A
C297        C486   1.478       .  S
C298        H300   1.081       .  S
N301        N302   1.322       .  A
N301        C305   1.346       .  A
N301       Cu309   2.080       .  S
N302        C303   1.344       .  A
N302       Cu308   2.068       .  S
C303        C304   1.383       .  A
C303        H306   1.082       .  S
C304        C305   1.386       .  A
C304        C496   1.478       .  S
C305        H307   1.082       .  S
Cu308       N311   2.068       .  S
Cu309       N319   2.080       .  S
Cu310       N312   2.074       .  S
Cu310       N318   2.074       .  S
N311        N312   1.322       .  A
N311        C315   1.343       .  A
N312        C313   1.346       .  A
C313        C314   1.385       .  A
C313        H316   1.082       .  S
C314        C315   1.383       .  A
C314        C489   1.477       .  S
C315        H317   1.082       .  S
N318        N319   1.323       .  A
N318        C322   1.345       .  A
N319        C320   1.345       .  A
C320        C321   1.386       .  A
C320        H323   1.082       .  S
C321        C322   1.384       .  A
C321        C476   1.480       .  S
C322        H324   1.082       .  S
N325        N326   1.323       .  A
N325        C329   1.346       .  A
N325       Cu333   2.079       .  S
N326        C327   1.344       .  A
N326       Cu332   2.070       .  S
C327        C328   1.382       .  A
C327        H330   1.081       .  S
C328        C329   1.383       .  A
C329        H331   1.082       .  S
Cu332       N335   2.070       .  S
Cu333       N343   2.079       .  S
Cu334       N336   2.068       .  S
Cu334       N342   2.068       .  S
N335        N336   1.322       .  A
N335        C339   1.346       .  A
N336        C337   1.343       .  A
C337        C338   1.382       .  A
C337        H340   1.082       .  S
C338        C339   1.383       .  A
C338        C376   1.469       .  S
C339        H341   1.082       .  S
N342        N343   1.321       .  A
N342        C346   1.345       .  A
N343        C344   1.345       .  A
C344        C345   1.386       .  A
C344        H347   1.081       .  S
C345        C346   1.384       .  A
C345        C479   1.480       .  S
C346        H348   1.081       .  S
N349        N350   1.323   1_545  A
N349        C353   1.346       .  A
N349       Cu357   2.081       .  S
N350        C351   1.346       .  A
N350       Cu356   2.073       .  S
C351        C352   1.383       .  A
C351        H354   1.082       .  S
C352        C353   1.385   1_565  A
C353        H355   1.082       .  S
Cu356       N359   2.073       .  S
Cu357       N367   2.081       .  S
Cu358       N360   2.071       .  S
Cu358       N366   2.071       .  S
N359        N360   1.322   1_565  A
N359        C363   1.344       .  A
N360        C361   1.345       .  A
C361        C362   1.383   1_545  A
C361        H364   1.082       .  S
C362        C363   1.383       .  A
C363        H365   1.081       .  S
N366        N367   1.322       .  A
N366        C370   1.344       .  A
N367        C368   1.346       .  A
C368        C369   1.387       .  A
C368        H371   1.081       .  S
C369        C370   1.385       .  A
C369        C469   1.481       .  S
C370        H372   1.081       .  S
N373        N374   1.323       .  A
N373        C377   1.346       .  A
N373       Cu381   2.078       .  S
N374        C375   1.343       .  A
N374       Cu380   2.070       .  S
C375        C376   1.381       .  A
C375        H378   1.082       .  S
C376        C377   1.383       .  A
C377        H379   1.082       .  S
Cu380       N383   2.069       .  S
Cu381       N391   2.078       .  S
Cu382       N384   2.071       .  S
Cu382       N390   2.071       .  S
N383        N384   1.322       .  A
N383        C387   1.346       .  A
N384        C385   1.343       .  A
C385        C386   1.382       .  A
C385        H388   1.082       .  S
C386        C387   1.383       .  A
C387        H389   1.082       .  S
N390        N391   1.322       .  A
N390        C394   1.345       .  A
N391        C392   1.346       .  A
C392        C393   1.385       .  A
C392        H395   1.081       .  S
C393        C394   1.383       .  A
C393        C456   1.477       .  S
C394        H396   1.081       .  S
N397        N398   1.323       .  A
N397        C401   1.346       .  A
N397       Cu405   2.082       .  S
N398        C399   1.345       .  A
N398       Cu404   2.078       .  S
C399        C400   1.386       .  A
C399        H402   1.082       .  S
C400        C401   1.387       .  A
C400        C459   1.484       .  S
C401        H403   1.082       .  S
Cu404       N407   2.078       .  S
Cu405       N415   2.081       .  S
Cu406       N408   2.070       .  S
Cu406       N414   2.070       .  S
N407        N408   1.322       .  A
N407        C411   1.346       .  A
N408        C409   1.344       .  A
C409        C410   1.384       .  A
C409        H412   1.082       .  S
C410        C411   1.386       .  A
C410        C466   1.480       .  S
C411        H413   1.082       .  S
N414        N415   1.322       .  A
N414        C418   1.343       .  A
N415        C416   1.347       .  A
C416        C417   1.386       .  A
C416        H419   1.082       .  S
C417        C418   1.383       .  A
C417        C449   1.478       .  S
C418        H420   1.082       .  S
N421        N422   1.322       .  A
N421        C425   1.343       .  A
N421       Cu429   2.065       .  S
N422        C423   1.344       .  A
N422       Cu428   2.072       .  S
C423        C424   1.383       .  A
C423        H426   1.082   1_655  S
C424        C425   1.381       .  A
C425        H427   1.082       .  S
Cu428       N431   2.072       .  S
Cu429       N439   2.065       .  S
Cu430       N432   2.079       .  S
Cu430       N438   2.079       .  S
N431        N432   1.323       .  A
N431        C435   1.345       .  A
N432        C433   1.345       .  A
C433        C434   1.383       .  A
C433        H436   1.082       .  S
C434        C435   1.383       .  A
C435        H437   1.082   1_655  S
N438        N439   1.321       .  A
N438        C442   1.346       .  A
N439        C440   1.344       .  A
C440        C441   1.383       .  A
C440        H443   1.081       .  S
C441        C442   1.386       .  A
C441        C446   1.479       .  S
C442        H444   1.081       .  S
C445        C446   1.404       .  A
C445        C450   1.398       .  A
C445        H452   1.083       .  S
C446        C447   1.407       .  A
C447        C448   1.399       .  A
C447        F454   1.357       .  S
C448        C449   1.404       .  A
C448        H453   1.083       .  S
C449        C450   1.406       .  A
C450        F451   1.357       .  S
C455        C456   1.402       .  A
C455        C460   1.399       .  A
C455        H462   1.083       .  S
C456        C457   1.405       .  A
C457        C458   1.400       .  A
C457        F464   1.358       .  S
C458        C459   1.406       .  A
C458        H463   1.083       .  S
C459        C460   1.409       .  A
C460        F461   1.356       .  S
C465        C466   1.404       .  A
C465        C470   1.399       .  A
C465        H472   1.083       .  S
C466        C467   1.407       .  A
C467        C468   1.399       .  A
C467        F474   1.357       .  S
C468        C469   1.404       .  A
C468        H473   1.083       .  S
C469        C470   1.408       .  A
C470        F471   1.357       .  S
C475        C476   1.404       .  A
C475        C480   1.398       .  A
C475        H482   1.083       .  S
C476        C477   1.407       .  A
C477        C478   1.400       .  A
C477        F484   1.357       .  S
C478        C479   1.405       .  A
C478        H483   1.083       .  S
C479        C480   1.407       .  A
C480        F481   1.357       .  S
C485        C486   1.403       .  A
C485        C490   1.397       .  A
C485        H492   1.083       .  S
C486        C487   1.408       .  A
C487        C488   1.398       .  A
C487        F494   1.357       .  S
C488        C489   1.403       .  A
C488        H493   1.083       .  S
C489        C490   1.407       .  A
C490        F491   1.357       .  S
C495        C496   1.403       .  A
C495        C500   1.398       .  A
C495        H502   1.084       .  S
C496        C497   1.406       .  A
C497        C498   1.400       .  A
C497        F504   1.358       .  S
C498        C499   1.405       .  A
C498        H503   1.083       .  S
C499        C500   1.407       .  A
C500        F501   1.357       .  S
