geometry optimzed in LAMMPS
_audit_creation_date              2020-11-30 
_audit_creation_method            'lammps2cif' 
_symmetry_space_group_name_H-M    'P1' 
_symmetry_Int_Tables_number       1 
_symmetry_cell_setting            triclinic 
loop_ 
_symmetry_equiv_pos_as_xyz 
  x,y,z 
_cell_length_a                    89.35119859 
_cell_length_b                    89.38129806134641 
_cell_length_c                    51.348925274511934 
_cell_angle_alpha                 90.74405558993598 
_cell_angle_beta                  89.14982177278559 
_cell_angle_gamma                 122.50490395102462 
loop_ 
_atom_site_label 
_atom_site_type_symbol 
_atom_site_fract_x 
_atom_site_fract_y 
_atom_site_fract_z 
_atom_site_charge 
N1          N  0.76618834  0.70816321  0.23266108    -0.27100
N2          N  0.76257931  0.70761787  0.25782621    -0.34900
C3          C  0.75458439  0.71650926  0.26242438     0.01300
C4          C  0.75295971  0.72307370  0.23911368     0.07300
C5          C  0.76051046  0.71751309  0.22059567    -0.05800
H6          H  0.75006247  0.71784351  0.28145853     0.08000
H7          H  0.76122313  0.71946058  0.19977085     0.09200
Cu8        Cu  0.76707885  0.69392745  0.28542923     0.44200
Cu9        Cu  0.77772810  0.69521698  0.21588953     0.42000
Cu10       Cu  0.78425758  0.66863462  0.26223936     0.43900
N11         N  0.77046515  0.67761180  0.30933146    -0.34400
N12         N  0.77639990  0.66777652  0.30052355    -0.28700
C13         C  0.77618076  0.65777891  0.32004594    -0.04800
C14         C  0.76991236  0.66166008  0.34224533     0.07400
C15         C  0.76651111  0.67436020  0.33480232     0.01200
H16         H  0.78040950  0.64851603  0.31823644     0.08900
H17         H  0.76115816  0.68045924  0.34684177     0.07900
N18         N  0.79063968  0.67045917  0.22307073    -0.35900
N19         N  0.78836072  0.67998183  0.20597016    -0.28100
C20         C  0.79372329  0.67776746  0.18235296    -0.03300
C21         C  0.79950420  0.66617940  0.18472399     0.05300
C22         C  0.79744244  0.66199396  0.21092597     0.03400
H23         H  0.79323655  0.68396440  0.16470211     0.08500
H24         H  0.80088433  0.65364513  0.22076225     0.07300
N25         N  0.86168599  0.60011319  0.05654162    -0.27100
N26         N  0.86320394  0.59872800  0.03109032    -0.34900
C27         C  0.87069893  0.58935631  0.02634547     0.01300
C28         C  0.87421686  0.58455658  0.04987245     0.07300
C29         C  0.86819134  0.59151400  0.06862848    -0.05800
H30         H  0.87321086  0.58618860  0.00703064     0.08000
H31         H  0.86880671  0.59068573  0.08954617     0.09200
Cu32       Cu  0.85597216  0.60996296  0.00301406     0.44200
Cu33       Cu  0.85130033  0.61412332  0.07357014     0.42000
Cu34       Cu  0.84270016  0.63856921  0.02648646     0.43900
N35         N  0.85056399  0.62456208  0.97846425    -0.34400
N36         N  0.84607482  0.63554968  0.98737633    -0.28700
C37         C  0.84495526  0.64438854  0.96734192    -0.04800
C38         C  0.84899172  0.63870836  0.94464352     0.07400
C39         C  0.85234461  0.62601279  0.95240603     0.01200
H40         H  0.84182407  0.65447679  0.96930945     0.08900
H41         H  0.85673901  0.61910176  0.94021870     0.07900
N42         N  0.83817613  0.63865945  0.06597792    -0.35900
N43         N  0.84093247  0.62965070  0.08339529    -0.28100
C44         C  0.83569712  0.63213556  0.10694849    -0.03300
C45         C  0.82948870  0.64334655  0.10415504     0.05300
C46         C  0.83123181  0.64708660  0.07782508     0.03400
H47         H  0.83633172  0.62619543  0.12478262     0.08500
H48         H  0.82717858  0.65483794  0.06766323     0.07300
N49         N  0.70008864  0.77169727  0.23103768    -0.27100
N50         N  0.70290393  0.77136796  0.20573297    -0.34900
C51         C  0.71277479  0.76435196  0.20157150     0.01300
C52         C  0.71636034  0.75987906  0.22531354     0.07300
C53         C  0.70817368  0.76484025  0.24361935    -0.05800
H54         H  0.71638757  0.76195494  0.18248187     0.08000
H55         H  0.70791438  0.76344233  0.26453124     0.09200
Cu56       Cu  0.69177346  0.77826598  0.17708908     0.44200
Cu57       Cu  0.68434871  0.78031902  0.24724796     0.42000
Cu58       Cu  0.65931905  0.78711447  0.19943556     0.43900
N59         N  0.67526907  0.78068349  0.15224242    -0.34400
N60         N  0.66281211  0.78327730  0.16071897    -0.28700
C61         C  0.65280468  0.78206212  0.14057882    -0.04800
C62         C  0.65938121  0.77867130  0.11827256     0.07400
C63         C  0.67364785  0.77788701  0.12637176     0.01200
H64         H  0.64129682  0.78308251  0.14219641     0.08900
H65         H  0.68153433  0.77441388  0.11469820     0.07900
N66         N  0.65827685  0.79138648  0.23877132    -0.35900
N67         N  0.66720875  0.78883578  0.25657207    -0.28100
C68         C  0.66363318  0.79313311  0.28009221    -0.03300
C69         C  0.65195483  0.79870969  0.27679210     0.05300
C70         C  0.64895309  0.79746178  0.25030451     0.03400
H71         H  0.66953871  0.79275035  0.29810513     0.08500
H72         H  0.64062606  0.80077622  0.24006273     0.07300
N73         N  0.58846211  0.86324368  0.40653798    -0.27100
N74         N  0.58788582  0.86551718  0.43194324    -0.34900
C75         C  0.57891120  0.87346186  0.43665574     0.01300
C76         C  0.57345059  0.87633320  0.41312823     0.07300
C77         C  0.57984035  0.86969452  0.39445712    -0.05800
H78         H  0.57667043  0.87700508  0.45588879     0.08000
H79         H  0.57888348  0.87002454  0.37353900     0.09200
Cu80       Cu  0.60017066  0.85885918  0.45933543     0.44200
Cu81       Cu  0.60150146  0.85208954  0.38914161     0.42000
Cu82       Cu  0.62622560  0.84250805  0.43365852     0.43900
N83         N  0.61583278  0.85375766  0.48227270    -0.34400
N84         N  0.62579088  0.84819400  0.47255310    -0.28700
C85         C  0.63529917  0.84724742  0.49173716    -0.04800
C86         C  0.63110104  0.85244647  0.51474085     0.07400
C87         C  0.61862295  0.85637022  0.50805205     0.01200
H88         H  0.64455221  0.84306643  0.48904213     0.08900
H89         H  0.61249318  0.86134654  0.52080920     0.07900
N90         N  0.62447799  0.83709747  0.39431169    -0.35900
N91         N  0.61564278  0.84063535  0.37770307    -0.28100
C92         C  0.61722950  0.83527005  0.35374145    -0.03300
C93         C  0.62750230  0.82794103  0.35551850     0.05300
C94         C  0.63179447  0.82934581  0.38156257     0.03400
H95         H  0.61101599  0.83627162  0.33650612     0.08500
H96         H  0.63977004  0.82513444  0.39065845     0.07300
N97         N  0.92432410  0.53380817  0.06569503    -0.27100
N98         N  0.92193924  0.53529119  0.09080924    -0.34900
C99         C  0.91232348  0.54266641  0.09391114     0.01300
C100        C  0.90829762  0.54597719  0.06956132     0.07300
C101        C  0.91626857  0.54028461  0.05208530    -0.05800
H102        H  0.90909603  0.54593076  0.11264532     0.08000
H103        H  0.91625472  0.54082783  0.03105168     0.09200
Cu104      Cu  0.93248556  0.52813676  0.12006160     0.44200
Cu105      Cu  0.93860236  0.52310005  0.05187854     0.42000
Cu106      Cu  0.95639306  0.50785983  0.10219357     0.43900
N107        N  0.94540337  0.52193295  0.14671378    -0.34400
N108        N  0.95412432  0.51426489  0.14037745    -0.28700
C109        C  0.96201937  0.51318790  0.16177906    -0.04800
C110        C  0.95824148  0.52078117  0.18248126     0.07400
C111        C  0.94755581  0.52604063  0.17218384     0.01200
H112        H  0.97064463  0.50814651  0.16195049     0.08900
H113        H  0.94204436  0.53273975  0.18224092     0.07900
N114        N  0.95877665  0.50535524  0.06238224    -0.35900
N115        N  0.95263499  0.51103346  0.04427548    -0.28100
C116        C  0.95688934  0.50760570  0.02067578    -0.03300
C117        C  0.96622333  0.49942747  0.02404032     0.05300
C118        C  0.96706716  0.49817595  0.05076666     0.03400
H119        H  0.95311466  0.51059184  0.00250541     0.08500
H120        H  0.97348275  0.49268308  0.06111495     0.07300
N121        N  0.03194761  0.43451368  0.90274696    -0.27100
N122        N  0.03355921  0.43280528  0.87743401    -0.34900
C123        C  0.04229942  0.42458225  0.87339610     0.01300
C124        C  0.04644642  0.42084003  0.89728742     0.07300
C125        C  0.03952581  0.42719190  0.91553406    -0.05800
H126        H  0.04492505  0.42110783  0.85437471     0.08000
H127        H  0.04005047  0.42662146  0.93651218     0.09200
Cu128      Cu  0.02323209  0.44084865  0.84905162     0.44200
Cu129      Cu  0.01972649  0.44713695  0.91785493     0.42000
Cu130      Cu  0.00351625  0.46470129  0.86824423     0.43900
N131        N  0.01108240  0.44841473  0.82306482    -0.34400
N132        N  0.00406279  0.45764383  0.82999162    -0.28700
C133        C  0.99614335  0.45943982  0.80924672    -0.04800
C134        C  0.99809566  0.45066833  0.78836400     0.07400
C135        C  0.00770250  0.44390915  0.79780964     0.01200
H136        H  0.98855994  0.46564726  0.80975923     0.08900
H137        H  0.01146057  0.43580965  0.78737541     0.07900
N138        N  0.00213486  0.46762128  0.90798900    -0.35900
N139        N  0.00771870  0.46126599  0.92590906    -0.28100
C140        C  0.00396206  0.46511687  0.94958473    -0.03300
C141        C  0.99547050  0.47418969  0.94639868     0.05300
C142        C  0.99468457  0.47558853  0.91973124     0.03400
H143        H  0.00727994  0.46157298  0.96767301     0.08500
H144        H  0.98865138  0.48150526  0.90946586     0.07300
N145        N  0.09126462  0.36473199  0.90473200    -0.27100
N146        N  0.08885300  0.36477412  0.93019224    -0.34900
C147        C  0.08115359  0.37386534  0.93570073     0.01300
C148        C  0.07851338  0.37993208  0.91265084     0.07300
C149        C  0.08522593  0.37399077  0.89338688    -0.05800
H150        H  0.07796834  0.37605021  0.95520531     0.08000
H151        H  0.08539498  0.37596314  0.87261461     0.09200
Cu152      Cu  0.09555203  0.35230580  0.95696601     0.44200
Cu153      Cu  0.10196569  0.35131480  0.88695539     0.42000
Cu154      Cu  0.10904787  0.32418883  0.93215461     0.43900
N155        N  0.10078552  0.33719729  0.98072442    -0.34400
N156        N  0.10537323  0.32636154  0.97148354    -0.28700
C157        C  0.10686150  0.31761445  0.99136751    -0.04800
C158        C  0.10297742  0.32323329  0.01432721     0.07400
C159        C  0.09929642  0.33574590  0.00676706     0.01200
H160        H  0.11054104  0.30795058  0.98914264     0.08900
H161        H  0.09522689  0.34283651  0.01917987     0.07900
N162        N  0.11369234  0.32539029  0.89248192    -0.35900
N163        N  0.11151127  0.33531419  0.87602200    -0.28100
C164        C  0.11668223  0.33339331  0.85210564    -0.03300
C165        C  0.12228460  0.32163238  0.85359249     0.05300
C166        C  0.12022792  0.31693279  0.87957477     0.03400
H167        H  0.11647723  0.34016338  0.83493610     0.08500
H168        H  0.12386671  0.30854612  0.88882013     0.07300
N169        N  0.19102218  0.26232062  0.72930366    -0.27100
N170        N  0.19427636  0.26157845  0.70431054    -0.34900
C171        C  0.20214840  0.25242013  0.70122821     0.01300
C172        C  0.20395832  0.24698620  0.72546618     0.07300
C173        C  0.19673539  0.25354135  0.74285982    -0.05800
H174        H  0.20634400  0.25000829  0.68262624     0.08000
H175        H  0.19614962  0.25252093  0.76385475     0.09200
Cu176      Cu  0.18885944  0.27389053  0.67562672     0.44200
Cu177      Cu  0.17949612  0.27593976  0.74312657     0.42000
Cu178      Cu  0.16998229  0.29948211  0.69481387     0.43900
N179        N  0.18476357  0.28904075  0.65032133    -0.34400
N180        N  0.17771078  0.29828483  0.65708998    -0.28700
C181        C  0.17773323  0.30724940  0.63624899    -0.04800
C182        C  0.18541020  0.30362295  0.61555303     0.07400
C183        C  0.18962276  0.29197698  0.62513774     0.01200
H184        H  0.17322110  0.31631933  0.63645468     0.08900
H185        H  0.19598436  0.28622557  0.61475309     0.07900
N186        N  0.16440467  0.29880662  0.73417834    -0.35900
N187        N  0.16768012  0.29020606  0.75165760    -0.28100
C188        C  0.16195399  0.29209810  0.77510929    -0.03300
C189        C  0.15487209  0.30249610  0.77231885     0.05300
C190        C  0.15663930  0.30645963  0.74604450     0.03400
H191        H  0.16290012  0.28632293  0.79290612     0.08500
H192        H  0.15216519  0.31391888  0.73603970     0.07300
N193        N  0.36599226  0.10456082  0.56698519    -0.27100
N194        N  0.36770771  0.10287137  0.54171191    -0.34900
C195        C  0.37724210  0.09548107  0.53771793     0.01300
C196        C  0.38176336  0.09214266  0.56164169     0.07300
C197        C  0.37452003  0.09824508  0.57981443    -0.05800
H198        H  0.38065736  0.09286593  0.51865186     0.08000
H199        H  0.37508259  0.09777701  0.60079756     0.09200
Cu200      Cu  0.35624119  0.10960667  0.51347887     0.44200
Cu201      Cu  0.35150937  0.11500136  0.58187017     0.42000
Cu202      Cu  0.33042349  0.12770507  0.53341510     0.43900
N203        N  0.34160158  0.11435188  0.48814713    -0.34400
N204        N  0.33221209  0.12118519  0.49519425    -0.28700
C205        C  0.32332342  0.12139326  0.47441822    -0.04800
C206        C  0.32728319  0.11422593  0.45336347     0.07400
C207        C  0.33888065  0.10989773  0.46284492     0.01200
H208        H  0.31393186  0.12549858  0.47503034     0.08900
H209        H  0.34454870  0.10349618  0.45233072     0.07900
N210        N  0.32886827  0.13048647  0.57326852    -0.35900
N211        N  0.33620849  0.12574177  0.59083924    -0.28100
C212        C  0.33215029  0.12901752  0.61472902    -0.03300
C213        C  0.32172222  0.13612000  0.61210437     0.05300
C214        C  0.32002975  0.13689809  0.58547204     0.03400
H215        H  0.33677283  0.12667193  0.63262717     0.08500
H216        H  0.31268551  0.14155549  0.57558885     0.07300
N217        N  0.25271703  0.19488300  0.74066937    -0.27100
N218        N  0.25131139  0.19705821  0.76590400    -0.34900
C219        C  0.24240298  0.20518267  0.76950011     0.01300
C220        C  0.23815907  0.20853090  0.74536490     0.07300
C221        C  0.24484186  0.20172155  0.72752615    -0.05800
H222        H  0.23988232  0.20905665  0.78829358     0.08000
H223        H  0.24417867  0.20183039  0.70652177     0.09200
Cu224      Cu  0.26311928  0.19062445  0.79424831     0.44200
Cu225      Cu  0.26598052  0.18339304  0.72529486     0.42000
Cu226      Cu  0.28782311  0.17145724  0.77215170     0.43900
N227        N  0.27826542  0.18569055  0.81849511    -0.34400
N228        N  0.28722330  0.17854970  0.81057022    -0.28700
C229        C  0.29649148  0.17816760  0.83069153    -0.04800
C230        C  0.29337970  0.18564683  0.85221010     0.07400
C231        C  0.28167167  0.19015851  0.84376381     0.01200
H232        H  0.30551390  0.17361234  0.82940023     0.08900
H233        H  0.27626739  0.19655339  0.85494471     0.07900
N234        N  0.28790245  0.16724108  0.73235707    -0.35900
N235        N  0.28014722  0.17173760  0.71516941    -0.28100
C236        C  0.28319889  0.16771241  0.69111487    -0.03300
C237        C  0.29342295  0.16035648  0.69323230     0.05300
C238        C  0.29602893  0.16021268  0.71974196     0.03400
H239        H  0.27815816  0.16985274  0.67347688     0.08500
H240        H  0.30362150  0.15568426  0.72920714     0.07300
N241        N  0.52647427  0.93080805  0.40157755    -0.27100
N242        N  0.52731520  0.92818298  0.37631841    -0.34900
C243        C  0.53411524  0.91804472  0.37277084     0.01300
C244        C  0.53791589  0.91411791  0.39687207     0.07300
C245        C  0.53274003  0.92237169  0.41468270    -0.05800
H246        H  0.53674659  0.91439799  0.35387776     0.08000
H247        H  0.53345432  0.92235411  0.43567205     0.09200
Cu248      Cu  0.52098733  0.93968013  0.34709308     0.44200
Cu249      Cu  0.51754538  0.94628270  0.41763155     0.42000
Cu250      Cu  0.50926248  0.97012295  0.37081933     0.43900
N251        N  0.51773445  0.95616385  0.32292653    -0.34400
N252        N  0.51399899  0.96767823  0.33210394    -0.28700
C253        C  0.51409903  0.97746055  0.31245015    -0.04800
C254        C  0.51793863  0.97180069  0.28960775     0.07400
C255        C  0.52018581  0.95824520  0.29695566     0.01200
H256        H  0.51166797  0.98803134  0.31471440     0.08900
H257        H  0.52406765  0.95097230  0.28461205     0.07900
N258        N  0.50421507  0.97045711  0.41002464    -0.35900
N259        N  0.50730187  0.96181675  0.42760227    -0.28100
C260        C  0.50225804  0.96449075  0.45115699    -0.03300
C261        C  0.49553813  0.97527024  0.44817849     0.05300
C262        C  0.49711632  0.97878359  0.42173870     0.03400
H263        H  0.50357676  0.95906055  0.46901977     0.08500
H264        H  0.49308214  0.98655205  0.41154838     0.07300
N265        N  0.43515410  0.04464076  0.57456688    -0.27100
N266        N  0.43405213  0.04662749  0.59993483    -0.34900
C267        C  0.42637378  0.05587455  0.60435052     0.01300
C268        C  0.42238032  0.06001278  0.58062045     0.07300
C269        C  0.42812647  0.05261587  0.56216523    -0.05800
H270        H  0.42307994  0.05846935  0.62352439     0.08000
H271        H  0.42694824  0.05269021  0.54123985     0.09200
Cu272      Cu  0.44098264  0.03507940  0.62779656     0.44200
Cu273      Cu  0.44520845  0.03020668  0.55815700     0.42000
Cu274      Cu  0.45574203  0.00704449  0.60467804     0.43900
N275        N  0.44511598  0.01937888  0.65181496    -0.34400
N276        N  0.45023677  0.00881302  0.64325190    -0.28700
C277        C  0.45029815  0.99929648  0.66320862    -0.04800
C278        C  0.44486061  0.00408118  0.68542653     0.07400
C279        C  0.44180984  0.01693718  0.67749209     0.01200
H280        H  0.45388669  0.98954063  0.66146641     0.08900
H281        H  0.43679678  0.02347479  0.68924791     0.07900
N282        N  0.45991086  0.00697394  0.56513429    -0.35900
N283        N  0.45608795  0.01524461  0.54787738    -0.28100
C284        C  0.46049993  0.01234301  0.52396904    -0.03300
C285        C  0.46747550  0.00176048  0.52638418     0.05300
C286        C  0.46680932  0.99865876  0.55283823     0.03400
H287        H  0.45847649  0.01737111  0.50622506     0.08500
H288        H  0.47121582  0.99106274  0.56261667     0.07300
N289        N  0.46626057  0.44101009  0.14694974    -0.27100
N290        N  0.45905251  0.42461877  0.15551600    -0.34900
C291        C  0.45412400  0.42396993  0.18054356     0.01300
C292        C  0.45850958  0.44076840  0.18810306     0.07300
C293        C  0.46628158  0.45125635  0.16637709    -0.05800
H294        H  0.44735066  0.41202487  0.19211244     0.08000
H295        H  0.47066128  0.46506733  0.16436690     0.09200
Cu296      Cu  0.45447560  0.40342463  0.13231011     0.44200
Cu297      Cu  0.47358098  0.44838490  0.10852980     0.42000
Cu298      Cu  0.46347610  0.41328358  0.06339035     0.43900
N299        N  0.44833256  0.38437143  0.10382421    -0.34400
N300        N  0.45131044  0.38799288  0.07870526    -0.28700
C301        C  0.44406193  0.37271863  0.06518002    -0.04800
C302        C  0.43622940  0.35877203  0.08258371     0.07400
C303        C  0.43923017  0.36667406  0.10694768     0.01200
H304        H  0.44405008  0.37183804  0.04414646     0.08900
H305        H  0.43423912  0.36008662  0.12546562     0.07900
N306        N  0.47365110  0.43921372  0.05209301    -0.35900
N307        N  0.47733238  0.45213021  0.06869987    -0.28100
C308        C  0.48207379  0.46690493  0.05534281    -0.03300
C309        C  0.48136619  0.46314474  0.02893277     0.05300
C310        C  0.47597921  0.44541580  0.02770253     0.03400
H311        H  0.48471226  0.47909937  0.06429166     0.08500
H312        H  0.47328988  0.43738137  0.01036915     0.07300
N313        N  0.50624163  0.57956753  0.89225361    -0.27100
N314        N  0.50849882  0.58258466  0.86694564    -0.34900
C315        C  0.51612299  0.60001927  0.86274325     0.01300
C316        C  0.51906335  0.60854933  0.88659881     0.07300
C317        C  0.51242625  0.59507156  0.90484494    -0.05800
H318        H  0.51959557  0.60594044  0.84363535     0.08000
H319        H  0.51291545  0.59651076  0.92581866     0.09200
Cu320      Cu  0.50377502  0.56362314  0.83923268     0.44200
Cu321      Cu  0.49705687  0.55495547  0.90866385     0.42000
Cu322      Cu  0.49048399  0.52058335  0.86345103     0.43900
N323        N  0.50205802  0.54370292  0.81609962    -0.34400
N324        N  0.49682390  0.52778754  0.82495253    -0.28700
C325        C  0.49813565  0.51822456  0.80572309    -0.04800
C326        C  0.50459936  0.52867165  0.78371258     0.07400
C327        C  0.50703438  0.54478233  0.79102025     0.01200
H328        H  0.49547288  0.50499534  0.80806095     0.08900
H329        H  0.51236899  0.55653670  0.77917679     0.07900
N330        N  0.48847339  0.51754661  0.90335083    -0.35900
N331        N  0.49095109  0.53005426  0.92000973    -0.28100
C332        C  0.49000225  0.52423652  0.94437971    -0.03300
C333        C  0.48668023  0.50720371  0.94296033     0.05300
C334        C  0.48586427  0.50346704  0.91658276     0.03400
H335        H  0.49185270  0.53195334  0.96181222     0.08500
H336        H  0.48427728  0.49171720  0.90750963     0.07300
N337        N  0.33406369  0.20094897  0.99339031    -0.27100
N338        N  0.34431341  0.21752426  0.98545924    -0.34900
C339        C  0.34117401  0.21841136  0.96025093     0.01300
C340        C  0.32835503  0.20158108  0.95172422     0.07300
C341        C  0.32417668  0.19078808  0.97326185    -0.05800
H342        H  0.34731743  0.23057853  0.94921193     0.08000
H343        H  0.31393145  0.17685342  0.97470430     0.09200
Cu344      Cu  0.36085160  0.23871773  0.00936161     0.44200
Cu345      Cu  0.33266564  0.19361636  0.03193261     0.42000
Cu346      Cu  0.36088969  0.22946463  0.07708541     0.43900
N347        N  0.37539714  0.25816580  0.03683067    -0.34400
N348        N  0.37543698  0.25476198  0.06175141    -0.28700
C349        C  0.38554213  0.27012732  0.07468045    -0.04800
C350        C  0.39214815  0.28396305  0.05707347     0.07400
C351        C  0.38548624  0.27578659  0.03317292     0.01200
H352        H  0.38749716  0.27112625  0.09551871     0.08900
H353        H  0.38775201  0.28201842  0.01440128     0.07900
N354        N  0.34386371  0.20330408  0.08801654    -0.35900
N355        N  0.33344676  0.19035803  0.07170326    -0.28100
C356        C  0.32382606  0.17519162  0.08511072    -0.03300
C357        C  0.32849552  0.17868714  0.11110532     0.05300
C358        C  0.34120830  0.19669766  0.11220484     0.03400
H359        H  0.31428220  0.16249812  0.07645690     0.08500
H360        H  0.34782890  0.20456902  0.12931976     0.07300
N361        N  0.29380990  0.09880284  0.30810250    -0.27100
N362        N  0.28328762  0.08197972  0.31481212    -0.34900
C363        C  0.28528952  0.08034270  0.34025114     0.01300
C364        C  0.29771110  0.09691350  0.35009833     0.07300
C365        C  0.30273279  0.10834629  0.32922673    -0.05800
H366        H  0.27824468  0.06793140  0.35069353     0.08000
H367        H  0.31258625  0.12244366  0.32917249     0.09200
Cu368      Cu  0.26703005  0.06161740  0.28947413     0.44200
Cu369      Cu  0.29615772  0.10788039  0.27039251     0.42000
Cu370      Cu  0.26950486  0.07423967  0.22256168     0.43900
N371        N  0.25243177  0.04381843  0.26013562    -0.34400
N372        N  0.25360650  0.04847135  0.23552002    -0.28700
C373        C  0.24304665  0.03396170  0.22108338    -0.04800
C374        C  0.23479893  0.01944165  0.23742378     0.07400
C375        C  0.24098018  0.02620014  0.26208473     0.01200
H376        H  0.24149595  0.03406642  0.20025572     0.08900
H377        H  0.23779759  0.01880165  0.28000478     0.07900
N378        N  0.28559018  0.10090414  0.21406637    -0.35900
N379        N  0.29547346  0.11326311  0.23143471    -0.28100
C380        C  0.30441136  0.12911713  0.21957386    -0.03300
C381        C  0.29980173  0.12661966  0.19350239     0.05300
C382        C  0.28788762  0.10852403  0.19075099     0.03400
H383        H  0.31351370  0.14154499  0.22927589     0.08500
H384        H  0.28163322  0.10128353  0.17303986     0.07300
N385        N  0.12036644  0.77210754  0.47390902    -0.27100
N386        N  0.11615767  0.75640615  0.48246680    -0.34900
C387        C  0.11385007  0.75590693  0.50841837     0.01300
C388        C  0.11667756  0.77204618  0.51653343     0.07300
C389        C  0.12073524  0.78196164  0.49413185    -0.05800
H390        H  0.10931431  0.74424941  0.52017648     0.08000
H391        H  0.12314962  0.79514139  0.49247568     0.09200
Cu392      Cu  0.11126399  0.73546010  0.45860325     0.44200
Cu393      Cu  0.12351199  0.77914602  0.43519054     0.42000
Cu394      Cu  0.11303048  0.74423921  0.38986937     0.43900
N395        N  0.10453389  0.71641677  0.43003396    -0.34400
N396        N  0.10522133  0.71972365  0.40490681    -0.28700
C397        C  0.09892297  0.70454900  0.39144572    -0.04800
C398        C  0.09381357  0.69091302  0.40894780     0.07400
C399        C  0.09772548  0.69899721  0.43325437     0.01200
H400        H  0.09789621  0.70359725  0.37046572     0.08900
H401        H  0.09503228  0.69257852  0.45197781     0.07900
N402        N  0.11996781  0.76932269  0.37873464    -0.35900
N403        N  0.12377452  0.78222688  0.39543247    -0.28100
C404        C  0.12771782  0.79681603  0.38222799    -0.03300
C405        C  0.12632973  0.79286503  0.35587303     0.05300
C406        C  0.12145260  0.77533093  0.35441573     0.03400
H407        H  0.13177234  0.80944154  0.39120653     0.08500
H408        H  0.11915946  0.76749292  0.33696669     0.07300
N409        N  0.17683999  0.91552044  0.21890728    -0.27100
N410        N  0.18046257  0.91874103  0.19381626    -0.34900
C411        C  0.18889929  0.93629497  0.18989037     0.01300
C412        C  0.19072656  0.94460582  0.21367966     0.07300
C413        C  0.18293470  0.93093954  0.23162956    -0.05800
H414        H  0.19382791  0.94253697  0.17113836     0.08000
H415        H  0.18251376  0.93204507  0.25256987     0.09200
Cu416      Cu  0.17585094  0.89959507  0.16640661     0.44200
Cu417      Cu  0.16493057  0.89058776  0.23525250     0.42000
Cu418      Cu  0.15462671  0.85507137  0.19032259     0.43900
N419        N  0.17316551  0.87869053  0.14459949    -0.34400
N420        N  0.16514564  0.86229728  0.15338872    -0.28700
C421        C  0.16669800  0.85206094  0.13561091    -0.04800
C422        C  0.17634521  0.86256444  0.11467061     0.07400
C423        C  0.18013534  0.87936906  0.12095436     0.01200
H424        H  0.16182371  0.83817406  0.13826985     0.08900
H425        H  0.18757972  0.89127933  0.10943032     0.07900
N426        N  0.14939736  0.85146561  0.22964234    -0.35900
N427        N  0.15325690  0.86441810  0.24628880    -0.28100
C428        C  0.14945967  0.85781885  0.27054690    -0.03300
C429        C  0.14313546  0.83989403  0.26903112     0.05300
C430        C  0.14315373  0.83631965  0.24275629     0.03400
H431        H  0.15188097  0.86565034  0.28804185     0.08500
H432        H  0.13925043  0.82375472  0.23371445     0.07300
N433        N  0.66543511  0.86312452  0.65922628    -0.27100
N434        N  0.67843035  0.87852130  0.65005950    -0.34900
C435        C  0.67644082  0.87900460  0.62428164     0.01300
C436        C  0.66131227  0.86326135  0.61688797     0.07300
C437        C  0.65467752  0.85345996  0.63951328    -0.05800
H438        H  0.68475295  0.89042248  0.61212568     0.08000
H439        H  0.64271608  0.84045986  0.64166088     0.09200
Cu440      Cu  0.69644365  0.89932448  0.67327707     0.44200
Cu441      Cu  0.66228141  0.85647187  0.69833248     0.42000
Cu442      Cu  0.69087859  0.89135735  0.74289822     0.43900
N443        N  0.70950230  0.91891552  0.70108028    -0.34400
N444        N  0.70738357  0.91598236  0.72641170    -0.28700
C445        C  0.71716331  0.93147184  0.73911950    -0.04800
C446        C  0.72579376  0.94485948  0.72092718     0.07400
C447        C  0.72064037  0.93638005  0.69696668     0.01200
H448        H  0.71763139  0.93288654  0.76009872     0.08900
H449        H  0.72470021  0.94232432  0.67789847     0.07900
N450        N  0.67277194  0.86567378  0.75450911    -0.35900
N451        N  0.66218269  0.85288629  0.73816297    -0.28100
C452        C  0.65222101  0.83776030  0.75152414    -0.06900
C453        C  0.65671819  0.84114899  0.77763854     0.05300
C454        C  0.66987270  0.85905347  0.77871257     0.03400
H455        H  0.64246606  0.82519907  0.74275696     0.08500
H456        H  0.67726400  0.86669748  0.79555570     0.07300
N457        N  0.62267315  0.76224178  0.97479862    -0.27100
N458        N  0.60961997  0.74668083  0.98337515    -0.34900
C459        C  0.61193621  0.74538616  0.00883685     0.01300
C460        C  0.62718293  0.76091917  0.01672667     0.07300
C461        C  0.63367963  0.77125974  0.99457453    -0.05800
H462        H  0.60341098  0.73373258  0.02041845     0.08000
H463        H  0.64549875  0.78441549  0.99292995     0.09200
Cu464      Cu  0.58988002  0.72734999  0.96002002     0.44200
Cu465      Cu  0.62501913  0.77057661  0.93674420     0.42000
Cu466      Cu  0.59199501  0.73822856  0.89239238     0.43900
N467        N  0.57423468  0.70899846  0.93188534    -0.34400
N468        N  0.57527359  0.71287657  0.90692916    -0.28700
C469        C  0.56518227  0.69778608  0.89332699    -0.04800
C470        C  0.55732477  0.68371832  0.91059300     0.07400
C471        C  0.56338552  0.69137501  0.93488609     0.01200
H472        H  0.56417492  0.69706675  0.87232289     0.08900
H473        H  0.56111197  0.68458625  0.95319283     0.07900
N474        N  0.61119643  0.76403361  0.88206322    -0.35900
N475        N  0.62331503  0.77583391  0.89817804    -0.28100
C476        C  0.63372581  0.79116365  0.88540938    -0.03300
C477        C  0.62798615  0.78885892  0.85992432     0.05300
C478        C  0.61361326  0.77150283  0.85858333     0.03400
H479        H  0.64476925  0.80304385  0.89400340     0.08500
H480        H  0.60528390  0.76480099  0.84195035     0.07300
N481        N  0.95725494  0.43811035  0.64744984    -0.27100
N482        N  0.94546943  0.42203179  0.65607746    -0.34900
C483        C  0.94905240  0.42074114  0.68093007     0.01300
C484        C  0.96380364  0.43677961  0.68852704     0.07300
C485        C  0.96865491  0.44751438  0.66674425    -0.05800
H486        H  0.94168815  0.40878136  0.69237837     0.08000
H487        H  0.98008705  0.46086458  0.66459843     0.09200
Cu488      Cu  0.92659099  0.40146081  0.63325322     0.44200
Cu489      Cu  0.95812364  0.44578526  0.60913937     0.42000
Cu490      Cu  0.93077647  0.40889804  0.56468115     0.43900
N491        N  0.91389215  0.38115343  0.60627814    -0.34400
N492        N  0.91582369  0.38376472  0.58088716    -0.28700
C493        C  0.90768954  0.36792300  0.56867396    -0.04800
C494        C  0.90040931  0.35465366  0.58731662     0.07400
C495        C  0.90450799  0.36363492  0.61096063     0.01200
H496        H  0.90776085  0.36622025  0.54778674     0.08900
H497        H  0.90132042  0.35799504  0.63025971     0.07900
N498        N  0.94653421  0.43524993  0.55336797    -0.35900
N499        N  0.95633381  0.44865596  0.56940692    -0.28100
C500        C  0.96488121  0.46378917  0.55564859    -0.03300
C501        C  0.96037522  0.45973303  0.52964281     0.05300
C502        C  0.94862492  0.44149487  0.52903413     0.03400
H503        H  0.97402688  0.47675065  0.56392240     0.08500
H504        H  0.94190142  0.43327750  0.51224009     0.07300
N505        N  0.99385810  0.53270951  0.32715150    -0.27100
N506        N  0.00368259  0.54955039  0.32033202    -0.34900
C507        C  0.00029513  0.55118985  0.29554665     0.01300
C508        C  0.98778471  0.53455067  0.28601365     0.07300
C509        C  0.98398019  0.52309584  0.30663600    -0.05800
H510        H  0.00652578  0.56365341  0.28525275     0.08000
H511        H  0.97433838  0.50895753  0.30704519     0.09200
Cu512      Cu  0.02106419  0.56981182  0.34473806     0.44200
Cu513      Cu  0.99384919  0.52445425  0.36480113     0.42000
Cu514      Cu  0.02259823  0.56060303  0.41126861     0.43900
N515        N  0.03740263  0.58909688  0.37115297    -0.34400
N516        N  0.03799350  0.58594473  0.39601303    -0.28700
C517        C  0.04876436  0.60146441  0.40836381    -0.04800
C518        C  0.05528971  0.61506067  0.39025126     0.07400
C519        C  0.04777039  0.60658452  0.36687464     0.01200
H520        H  0.05080530  0.60272376  0.42916953     0.08900
H521        H  0.04921297  0.61266428  0.34816523     0.07900
N522        N  0.00495924  0.53424912  0.42119154    -0.35900
N523        N  0.99488027  0.52127437  0.40464764    -0.28100
C524        C  0.98494314  0.50612002  0.41803622    -0.03300
C525        C  0.98877775  0.50972179  0.44427283     0.05300
C526        C  0.00161992  0.52768266  0.44545542     0.03400
H527        H  0.97533126  0.49347417  0.40932125     0.08500
H528        H  0.00827567  0.53547876  0.46259889     0.07300
N529        N  0.85505789  0.25037049  0.57284661    -0.27100
N530        N  0.85698555  0.25330913  0.54749489    -0.34900
C531        C  0.86364902  0.27061668  0.54325998     0.01300
C532        C  0.86605317  0.27906394  0.56710224     0.07300
C533        C  0.86045180  0.26573895  0.58539173    -0.05800
H534        H  0.86731051  0.27668530  0.52423753     0.08000
H535        H  0.86064642  0.26714973  0.60635934     0.09200
Cu536      Cu  0.85232879  0.23416547  0.51979680     0.44200
Cu537      Cu  0.84673746  0.22598085  0.58941936     0.42000
Cu538      Cu  0.84327863  0.19265738  0.54412955     0.43900
N539        N  0.85022937  0.21413843  0.49609936    -0.34400
N540        N  0.84751446  0.19911832  0.50523988    -0.28700
C541        C  0.84821040  0.18950388  0.48547053    -0.04800
C542        C  0.85146403  0.19892324  0.46269681     0.07400
C543        C  0.85254208  0.21441673  0.47014508     0.01200
H544        H  0.84646132  0.17663006  0.48760409     0.08900
H545        H  0.85545060  0.22537664  0.45774474     0.07900
N546        N  0.83883075  0.18884019  0.58362419    -0.35900
N547        N  0.83995705  0.20076954  0.60032268    -0.28100
C548        C  0.83634337  0.19381777  0.62439747    -0.03300
C549        C  0.83292578  0.17675347  0.62268201     0.05300
C550        C  0.83447295  0.17405165  0.59646903     0.03400
H551        H  0.83647600  0.20078139  0.64186981     0.08500
H552        H  0.83233726  0.16215701  0.58713501     0.07300
N553        N  0.79032730  0.09651855  0.81850021    -0.27100
N554        N  0.78425367  0.08004362  0.82554364    -0.34900
C555        C  0.77877022  0.07794126  0.85052638     0.01300
C556        C  0.78146153  0.09389135  0.85949101     0.07300
C557        C  0.78876501  0.10533301  0.83862015    -0.05800
H558        H  0.77253964  0.06552269  0.86093610     0.08000
H559        H  0.79239164  0.11898240  0.83792558     0.09200
Cu560      Cu  0.78223224  0.06107772  0.79970679     0.44200
Cu561      Cu  0.79925399  0.10585384  0.78143911     0.42000
Cu562      Cu  0.79378785  0.07397220  0.73192746     0.43900
N563        N  0.77901509  0.04383339  0.76984784    -0.34400
N564        N  0.78289082  0.04839769  0.74512643    -0.28700
C565        C  0.77738158  0.03373789  0.73062678    -0.04800
C566        C  0.76974426  0.01924201  0.74705195     0.07400
C567        C  0.77103418  0.02617912  0.77176223     0.01200
H568        H  0.77825521  0.03359950  0.70959547     0.08900
H569        H  0.76546469  0.01888597  0.78964059     0.07900
N570        N  0.80360726  0.10035857  0.72461972    -0.35900
N571        N  0.80557318  0.11191775  0.74270105    -0.28100
C572        C  0.81141460  0.12763719  0.73151108    -0.03300
C573        C  0.81314291  0.12587646  0.70503948     0.05300
C574        C  0.80821164  0.10843767  0.70139358     0.03400
H575        H  0.81413287  0.13939701  0.74200015     0.08500
H576        H  0.80749448  0.10193340  0.68311454     0.07300
N577        N  0.86242052  0.17656203  0.31630070    -0.27100
N578        N  0.87839568  0.18118488  0.32406375    -0.34900
C579        C  0.87992219  0.18525021  0.34957168     0.01300
C580        C  0.86420279  0.18325520  0.35824624     0.07300
C581        C  0.85338793  0.17767926  0.33660257    -0.05800
H582        H  0.89177999  0.18977623  0.36080881     0.08000
H583        H  0.83990347  0.17451044  0.33561309     0.09200
Cu584      Cu  0.89778472  0.18294909  0.29929857     0.44200
Cu585      Cu  0.85376320  0.16932571  0.27840160     0.42000
Cu586      Cu  0.88622710  0.17327268  0.23108963     0.43900
N587        N  0.91573137  0.18666632  0.27015899    -0.34400
N588        N  0.91162465  0.18332353  0.24524903    -0.28700
C589        C  0.92649845  0.18847915  0.23134132    -0.04800
C590        C  0.94071846  0.19552413  0.24830528     0.07400
C591        C  0.93328174  0.19399649  0.27276853     0.01200
H592        H  0.92684142  0.18732620  0.21039557     0.08900
H593        H  0.94022414  0.19862017  0.29106947     0.07900
N594        N  0.86028016  0.16501008  0.22188923    -0.35900
N595        N  0.84852308  0.16367765  0.23917844    -0.28100
C596        C  0.83326337  0.15859192  0.22702116    -0.03300
C597        C  0.83547997  0.15667610  0.20069206     0.05300
C598        C  0.85276744  0.16075633  0.19823313     0.03400
H599        H  0.82142641  0.15630820  0.23682200     0.08500
H600        H  0.85953232  0.16097112  0.18045857     0.07300
N601        N  0.71192155  0.11376510  0.06537639    -0.27100
N602        N  0.70873866  0.11117535  0.04011943    -0.34900
C603        C  0.69146531  0.10472990  0.03615103     0.01300
C604        C  0.68328495  0.10315576  0.06001670     0.07300
C605        C  0.69673984  0.10901713  0.07808731    -0.05800
H606        H  0.68524213  0.10096652  0.01725877     0.08000
H607        H  0.69551959  0.10896776  0.09905967     0.09200
Cu608      Cu  0.72712725  0.11416699  0.01211187     0.44200
Cu609      Cu  0.73619877  0.12201565  0.08222334     0.42000
Cu610      Cu  0.76764964  0.12161740  0.03874558     0.43900
N611        N  0.74633307  0.11344611  0.98995285    -0.34400
N612        N  0.76077812  0.11540114  0.00014827    -0.28700
C613        C  0.76988426  0.11281358  0.98153182    -0.04800
C614        C  0.76087065  0.10927358  0.95836773     0.07400
C615        C  0.74597492  0.10977026  0.96439469     0.01200
H616        H  0.78222122  0.11356215  0.98463169     0.08900
H617        H  0.73535768  0.10706313  0.95142472     0.07900
N618        N  0.77269846  0.12845431  0.07759806    -0.35900
N619        N  0.76122603  0.12865124  0.09385489    -0.28100
C620        C  0.76849470  0.13334100  0.11768543    -0.03300
C621        C  0.78536479  0.13613825  0.11636239     0.05300
C622        C  0.78755266  0.13305499  0.09047369     0.03400
H623        H  0.76183409  0.13429908  0.13478768     0.08500
H624        H  0.79910289  0.13423194  0.08133288     0.07300
N625        N  0.19986074  0.34292882  0.47362644    -0.27100
N626        N  0.21653506  0.35324005  0.48100258    -0.34900
C627        C  0.21798589  0.34923281  0.50555286     0.01300
C628        C  0.20137768  0.33584824  0.51413196     0.07300
C629        C  0.19019979  0.33214182  0.49333872    -0.05800
H630        H  0.23024268  0.35564481  0.51635077     0.08000
H631        H  0.17620290  0.32203625  0.49225027     0.09200
Cu632      Cu  0.23667395  0.37188573  0.45731120     0.44200
Cu633      Cu  0.19124927  0.34322580  0.43672802     0.42000
Cu634      Cu  0.22529552  0.37182009  0.39001618     0.43900
N635        N  0.25486806  0.38795638  0.42922365    -0.34400
N636        N  0.25085669  0.38768617  0.40448740    -0.28700
C637        C  0.26589929  0.39826153  0.39093155    -0.04800
C638        C  0.28005278  0.40563516  0.40799540     0.07400
C639        C  0.27250133  0.39876928  0.43211843     0.01200
H640        H  0.26653359  0.39996220  0.37004073     0.08900
H641        H  0.27936164  0.40049472  0.45016023     0.07900
N642        N  0.19873607  0.35459465  0.38065732    -0.35900
N643        N  0.18641123  0.34424401  0.39785974    -0.28100
C644        C  0.17075259  0.33444162  0.38581849    -0.03300
C645        C  0.17327726  0.33874871  0.35966471     0.05300
C646        C  0.19117450  0.35168543  0.35713088     0.03400
H647        H  0.15844359  0.32501633  0.39557220     0.08500
H648        H  0.19825011  0.35827574  0.33942017     0.07300
N649        N  0.09503540  0.29619721  0.16271897    -0.27100
N650        N  0.08071118  0.28142299  0.15449532    -0.34900
C651        C  0.07989641  0.28201103  0.12844025     0.01300
C652        C  0.09429632  0.29803185  0.11990532     0.07300
C653        C  0.10366118  0.30664243  0.14219169    -0.05800
H654        H  0.06911311  0.27194059  0.11673914     0.08000
H655        H  0.11573288  0.31962129  0.14354083     0.09200
Cu656      Cu  0.06168209  0.26245348  0.17937873     0.44200
Cu657      Cu  0.10183771  0.30179682  0.20147217     0.42000
Cu658      Cu  0.06968366  0.27107578  0.24849357     0.43900
N659        N  0.04249551  0.24868577  0.20783618    -0.34400
N660        N  0.04532699  0.25189936  0.23305912    -0.28700
C661        C  0.02978751  0.24227515  0.24594164    -0.04800
C662        C  0.01645926  0.23255866  0.22796104     0.07400
C663        C  0.02508849  0.23700884  0.20399842     0.01200
H664        H  0.02821790  0.24332169  0.26667104     0.08900
H665        H  0.01906853  0.23274068  0.18501797     0.07900
N666        N  0.09503050  0.29185025  0.25807692    -0.35900
N667        N  0.10663843  0.30317502  0.24090809    -0.28100
C668        C  0.12201590  0.31441656  0.25295320    -0.03300
C669        C  0.12005105  0.30999397  0.27907334     0.05300
C670        C  0.10273661  0.29559628  0.28155205     0.03400
H671        H  0.13395832  0.32441709  0.24301944     0.08500
H672        H  0.09628716  0.28812037  0.29902640     0.07300
N673        N  0.86264761  0.67383496  0.79974911    -0.27100
N674        N  0.87781574  0.68695588  0.80914581    -0.34900
C675        C  0.87856721  0.68416427  0.83458237     0.01300
C676        C  0.86315222  0.66842396  0.84147895     0.07300
C677        C  0.85333042  0.66223348  0.81887496    -0.05800
H678        H  0.88970185  0.69275432  0.84699362     0.08000
H679        H  0.84029846  0.65036443  0.81649637     0.09200
Cu680      Cu  0.89725226  0.70705063  0.78619954     0.44200
Cu681      Cu  0.85571332  0.67274955  0.76139644     0.42000
Cu682      Cu  0.88972206  0.70490151  0.71656194     0.43900
N683        N  0.91683121  0.72224967  0.75905190    -0.34400
N684        N  0.91435124  0.72133358  0.73362732    -0.28700
C685        C  0.93024459  0.73097466  0.72160130    -0.04800
C686        C  0.94336139  0.73822512  0.74040269     0.07400
C687        C  0.93427379  0.73241544  0.76387742     0.01200
H688        H  0.93211413  0.73147862  0.70070578     0.08900
H689        H  0.93994250  0.73453821  0.78306597     0.07900
N690        N  0.86363713  0.68641065  0.70624003    -0.35900
N691        N  0.85143926  0.67495579  0.72272248    -0.28100
C692        C  0.83591774  0.66521025  0.71035671    -0.03300
C693        C  0.83836617  0.67075939  0.68479585     0.05300
C694        C  0.85614837  0.68412581  0.68279020     0.03400
H695        H  0.82382432  0.65469436  0.71936001     0.08500
H696        H  0.86307354  0.69182359  0.66567774     0.07300
N697        N  0.75888079  0.62921189  0.48785876    -0.27100
N698        N  0.74273868  0.61684589  0.48029706    -0.34900
C699        C  0.74152517  0.61821925  0.45445878     0.01300
C700        C  0.75763245  0.63228744  0.44543362     0.07300
C701        C  0.76834764  0.63886390  0.46714542    -0.05800
H702        H  0.72951470  0.61024187  0.44335019     0.08000
H703        H  0.78188908  0.65010652  0.46803077     0.09200
Cu704      Cu  0.72271609  0.60028036  0.50620076     0.44200
Cu705      Cu  0.76688289  0.63326083  0.52622401     0.42000
Cu706      Cu  0.73353604  0.60719305  0.57521415     0.43900
N707        N  0.70451066  0.58709421  0.53605776    -0.34400
N708        N  0.70833017  0.58971795  0.56111614    -0.28700
C709        C  0.69332531  0.57982141  0.57509346    -0.04800
C710        C  0.67931987  0.57063387  0.55801549     0.07400
C711        C  0.68700091  0.57546608  0.53342327     0.01200
H712        H  0.69261337  0.57981734  0.59614398     0.08900
H713        H  0.68044953  0.57103250  0.51484207     0.07900
N714        N  0.75998629  0.62512395  0.58345608    -0.35900
N715        N  0.77210552  0.63465751  0.56554127    -0.28100
C716        C  0.78794719  0.64474724  0.57700655    -0.03300
C717        C  0.78577007  0.64132788  0.60349207     0.05300
C718        C  0.76780428  0.62886512  0.60683757     0.03400
H719        H  0.80004555  0.65400367  0.56666947     0.08500
H720        H  0.76092167  0.62270209  0.62485883     0.07300
N721        N  0.43883739  0.46859735  0.32513461    -0.27100
N722        N  0.42278749  0.46200645  0.31565217    -0.34900
C723        C  0.42275075  0.45757215  0.29054217     0.01300
C724        C  0.43960814  0.46162688  0.28382102     0.07300
C725        C  0.44948182  0.46867014  0.30625938    -0.05800
H726        H  0.41108916  0.45110846  0.27841035     0.08000
H727        H  0.46298432  0.47227810  0.30928006     0.09200
Cu728      Cu  0.40111718  0.45714571  0.33808223     0.44200
Cu729      Cu  0.44464094  0.47404609  0.36427188     0.42000
Cu730      Cu  0.40823784  0.46292295  0.40812915     0.43900
N731        N  0.38136558  0.45155129  0.36525660    -0.34400
N732        N  0.38395641  0.45358750  0.39066188    -0.28700
C733        C  0.36836527  0.44787169  0.40276946    -0.04800
C734        C  0.35520904  0.44182416  0.38416352     0.07400
C735        C  0.36405744  0.44452102  0.36054506     0.01200
H736        H  0.36667623  0.44756576  0.42369826     0.08900
H737        H  0.35847562  0.44156701  0.34124666     0.07900
N738        N  0.43347086  0.47094104  0.42057414    -0.35900
N739        N  0.44672671  0.47489699  0.40440932    -0.28100
C740        C  0.46089960  0.47832781  0.41822261    -0.03300
C741        C  0.45644636  0.47659537  0.44443087     0.05300
C742        C  0.43890821  0.47187853  0.44517039     0.03400
H743        H  0.47344735  0.48157704  0.40973140     0.08500
H744        H  0.43043778  0.46858031  0.46217224     0.07300
N745        N  0.52307060  0.50032964  0.64681416    -0.27100
N746        N  0.53955903  0.50780332  0.65501776    -0.34900
C747        C  0.54077060  0.51441224  0.67907523     0.01300
C748        C  0.52421480  0.51079671  0.68639183     0.07300
C749        C  0.51327156  0.50175640  0.66559530    -0.05800
H750        H  0.55283139  0.52137507  0.69032021     0.08000
H751        H  0.49937852  0.49713423  0.66385961     0.09200
Cu752      Cu  0.56002093  0.50982557  0.63289093     0.44200
Cu753      Cu  0.51507091  0.49054965  0.60952816     0.42000
Cu754      Cu  0.55039239  0.49921006  0.56487855     0.43900
N755        N  0.57906660  0.51431741  0.60545110    -0.34400
N756        N  0.57556369  0.51075598  0.58042643    -0.28700
C757        C  0.59090781  0.51744993  0.56717572    -0.04800
C758        C  0.60476915  0.52560202  0.58469154     0.07400
C759        C  0.59672923  0.52328223  0.60883593     0.01200
H760        H  0.59191096  0.51711450  0.54618161     0.08900
H761        H  0.60321663  0.52886874  0.62722643     0.07900
N762        N  0.52464023  0.48980218  0.55336887    -0.35900
N763        N  0.51170533  0.48648894  0.56979593    -0.28100
C764        C  0.49716155  0.48219318  0.55624728    -0.03300
C765        C  0.50106831  0.48279921  0.52992992     0.05300
C766        C  0.51865131  0.48767199  0.52888171     0.03400
H767        H  0.48485698  0.47949364  0.56496031     0.08500
H768        H  0.52687277  0.49055947  0.51168871     0.07300
N769        N  0.52744144  0.00925742  0.14732620    -0.27100
N770        N  0.54344081  0.02176882  0.15525953    -0.34900
C771        C  0.54503898  0.01923418  0.18052732     0.01300
C772        C  0.52934291  0.00434503  0.18885473     0.07300
C773        C  0.51850066  0.99827775  0.16727212    -0.05800
H774        H  0.55706676  0.02712814  0.19161934     0.08000
H775        H  0.50519647  0.98663940  0.16605279     0.09200
Cu776      Cu  0.56331440  0.04027448  0.13087138     0.44200
Cu777      Cu  0.51884523  0.00738159  0.10957820     0.42000
Cu778      Cu  0.55282354  0.03701428  0.06300903     0.43900
N779        N  0.58224121  0.05399332  0.10211732    -0.34400
N780        N  0.57844211  0.05254533  0.07709584    -0.28700
C781        C  0.59364829  0.06139720  0.06324552    -0.04800
C782        C  0.60776201  0.06870573  0.08039359     0.07400
C783        C  0.59995980  0.06383983  0.10488982     0.01200
H784        H  0.59428335  0.06205875  0.04222128     0.08900
H785        H  0.60667816  0.06637654  0.12330073     0.07900
N786        N  0.52636741  0.01952264  0.05380183    -0.35900
N787        N  0.51405014  0.00873471  0.07069640    -0.28100
C788        C  0.49842335  0.99913412  0.05845801    -0.03300
C789        C  0.50101325  0.00403525  0.03250268     0.05300
C790        C  0.51889710  0.01705847  0.03034379     0.03400
H791        H  0.48609956  0.98955287  0.06801619     0.08500
H792        H  0.52605173  0.02410402  0.01292516     0.07300
N793        N  0.42965122  0.96992280  0.83035814    -0.27100
N794        N  0.41495932  0.95621509  0.82072039    -0.34900
C795        C  0.41455470  0.95840608  0.79501605     0.01300
C796        C  0.42964126  0.97436813  0.78826515     0.07300
C797        C  0.43896314  0.98133554  0.81108892    -0.05800
H798        H  0.40375189  0.94937921  0.78239274     0.08000
H799        H  0.45154238  0.99373603  0.81358383     0.09200
Cu800      Cu  0.39512249  0.93638697  0.84310366     0.44200
Cu801      Cu  0.43606504  0.97267377  0.86916569     0.42000
Cu802      Cu  0.40135957  0.94144811  0.91267587     0.43900
N803        N  0.37524232  0.92170293  0.86975552    -0.34400
N804        N  0.37744037  0.92364206  0.89522155    -0.28700
C805        C  0.36166706  0.91325109  0.90705063    -0.04800
C806        C  0.34890425  0.90449801  0.88807397     0.07400
C807        C  0.35802351  0.91012056  0.86463340     0.01200
H808        H  0.35955817  0.91270427  0.92790845     0.08900
H809        H  0.35261863  0.90637362  0.84523698     0.07900
N810        N  0.42655633  0.96080516  0.92469470    -0.35900
N811        N  0.43920624  0.97213201  0.90867979    -0.28100
C812        C  0.45411454  0.98253407  0.92217748    -0.03300
C813        C  0.45069983  0.97762491  0.94810059     0.05300
C814        C  0.43307071  0.96374039  0.94891715     0.03400
H815        H  0.46661449  0.99245538  0.91340571     0.08500
H816        H  0.42553039  0.95619255  0.96580068     0.07300
N817        N  0.24479455  0.84671570  0.90694729    -0.27100
N818        N  0.24881179  0.85042462  0.93182353    -0.34900
C819        C  0.26646836  0.85914440  0.93444449     0.01300
C820        C  0.27396492  0.86104059  0.91001796     0.07300
C821        C  0.25984512  0.85310409  0.89299647    -0.05800
H822        H  0.27332003  0.86442278  0.95268699     0.08000
H823        H  0.26044722  0.85224673  0.87201180     0.09200
Cu824      Cu  0.23064003  0.84513806  0.96103067     0.44200
Cu825      Cu  0.21922440  0.83392739  0.89303414     0.42000
Cu826      Cu  0.18514864  0.82314356  0.94168892     0.43900
N827        N  0.21043344  0.84046158  0.98613028    -0.34400
N828        N  0.19362938  0.83210581  0.97917912    -0.28700
C829        C  0.18391130  0.83212379  0.99936973    -0.04800
C830        C  0.19519931  0.84099135  0.01997743     0.07400
C831        C  0.21193006  0.84616369  0.01083604     0.01200
H832        H  0.16986724  0.82699595  0.99852970     0.08900
H833        H  0.22435008  0.85393989  0.02108901     0.07900
N834        N  0.18023835  0.81800854  0.90232542    -0.35900
N835        N  0.19264689  0.82190497  0.88456796    -0.28100
C836        C  0.18526277  0.81794252  0.86086066    -0.03300
C837        C  0.16735599  0.81143249  0.86379862     0.05300
C838        C  0.16463284  0.81153479  0.89040342     0.03400
H839        H  0.19256293  0.82037950  0.84276773     0.08500
H840        H  0.15232108  0.80747219  0.90047927     0.07300
N841        N  0.09837576  0.78867746  0.66139453    -0.27100
N842        N  0.08355516  0.78630895  0.65204352    -0.34900
C843        C  0.08388200  0.78507484  0.62594041     0.01300
C844        C  0.09968436  0.78670975  0.61859402     0.07300
C845        C  0.10850172  0.78894458  0.64162003    -0.05800
H846        H  0.07297499  0.78216206  0.61346525     0.08000
H847        H  0.12112440  0.79015527  0.64394733     0.09200
Cu848      Cu  0.06299544  0.78302100  0.67565679     0.44200
Cu849      Cu  0.10368391  0.79007601  0.70054107     0.42000
Cu850      Cu  0.07090540  0.78598181  0.74605796     0.43900
N851        N  0.04426983  0.77849492  0.70401517    -0.34400
N852        N  0.04721270  0.77972567  0.72935002    -0.28700
C853        C  0.03207429  0.77489030  0.74219281    -0.04800
C854        C  0.01886156  0.77020257  0.72413322     0.07400
C855        C  0.02715474  0.77281217  0.70012032     0.01200
H856        H  0.03083599  0.77456974  0.76317722     0.08900
H857        H  0.02102863  0.77003166  0.68118077     0.07900
N858        N  0.09496913  0.78990037  0.75723557    -0.35900
N859        N  0.10689242  0.79128392  0.74029479    -0.28100
C860        C  0.12118043  0.79410202  0.75308429    -0.03300
C861        C  0.11816718  0.79444112  0.77957229     0.05300
C862        C  0.10135265  0.79174377  0.78140685     0.03400
H863        H  0.13307914  0.79642310  0.74348710     0.08500
H864        H  0.09428621  0.79128123  0.79897139     0.07300
C865        C  0.15439483  0.80664049  0.84273484    -0.05200
C866        C  0.15624264  0.79939186  0.81944292    -0.32700
C867        C  0.14457548  0.79524039  0.79875638     0.36600
C868        C  0.13063908  0.79826856  0.80117372    -0.05600
C869        C  0.12881731  0.80549065  0.82457190    -0.32600
C870        C  0.14052049  0.80968469  0.84519044     0.36500
H871        H  0.16673417  0.79680521  0.81726385     0.16900
O872        O  0.14659155  0.78764065  0.77671256    -0.60100
H873        H  0.11855282  0.80838059  0.82678861     0.16900
O874        O  0.13894001  0.81781445  0.86695497    -0.60200
H875        H  0.12845503  0.80833042  0.87656206     0.43900
H876        H  0.15727678  0.79734846  0.76773489     0.43800
C877        C  0.32961891  0.89258120  0.89239768    -0.05200
C878        C  0.32353699  0.88219733  0.91496297    -0.32700
C879        C  0.30542878  0.87143758  0.92049436     0.36600
C880        C  0.29302737  0.87105754  0.90345726    -0.05600
C881        C  0.29903227  0.88102978  0.88049359    -0.32600
C882        C  0.31717813  0.89186289  0.87497845     0.36500
H883        H  0.33286175  0.88236690  0.92839734     0.16900
O884        O  0.30002669  0.86130603  0.94258595    -0.60100
H885        H  0.28968260  0.88100382  0.86726985     0.16900
O886        O  0.32253378  0.90220023  0.85310197    -0.60200
H887        H  0.32444024  0.91371736  0.85894061     0.43900
H888        H  0.29773854  0.84960854  0.93692930     0.43800
C889        C  0.46339240  0.98470534  0.96991906    -0.05200
C890        C  0.46085911  0.97356307  0.99079974    -0.32700
C891        C  0.47282892  0.97964784  0.01144421     0.36600
C892        C  0.48772629  0.99719453  0.01145120    -0.05600
C893        C  0.49014231  0.00838975  0.99071556    -0.32600
C894        C  0.47817345  0.00231311  0.97008124     0.36500
H895        H  0.44977481  0.95989798  0.99091527     0.16900
O896        O  0.47034317  0.96800269  0.03068631    -0.60100
H897        H  0.50128172  0.02202983  0.99055452     0.16900
O898        O  0.48065949  0.01395073  0.95081436    -0.60200
H899        H  0.49100828  0.01583947  0.94050202     0.43900
H900        H  0.46034888  0.96655281  0.04147010     0.43800
C901        C  0.48959415  0.48091623  0.50794655    -0.05200
C902        C  0.47706820  0.48569316  0.51155751    -0.32700
C903        C  0.46619728  0.48436826  0.49113638     0.36600
C904        C  0.46769638  0.47814143  0.46651037    -0.05600
C905        C  0.48020311  0.47334585  0.46288714    -0.32600
C906        C  0.49111579  0.47471891  0.48329262     0.36500
H907        H  0.47592127  0.49087529  0.53014529     0.16900
O908        O  0.45488229  0.49014400  0.49508089    -0.60100
H909        H  0.48139347  0.46825993  0.44423245     0.16900
O910        O  0.50263950  0.46921274  0.47921384    -0.60200
H911        H  0.51242081  0.47856962  0.46840078     0.43900
H912        H  0.44501918  0.48090658  0.50591776     0.43800
C913        C  0.66021727  0.55902165  0.56474313    -0.05200
C914        C  0.65502932  0.54952812  0.58823959    -0.32700
C915        C  0.63704811  0.53852053  0.59503981     0.36600
C916        C  0.62390311  0.53690153  0.57826333    -0.05600
C917        C  0.62911296  0.54654321  0.55499936    -0.32600
C918        C  0.64702162  0.55754005  0.54820253     0.36500
H919        H  0.66492216  0.55044769  0.60126098     0.16900
O920        O  0.63251785  0.52927934  0.61794113    -0.60100
H921        H  0.61927380  0.54592890  0.54218802     0.16900
O922        O  0.65144877  0.56759850  0.52612342    -0.60200
H923        H  0.64821859  0.55913876  0.51140036     0.43900
H924        H  0.63050847  0.51754672  0.61320478     0.43800
C925        C  0.96280477  0.74720234  0.73645445    -0.05200
C926        C  0.97268971  0.74426774  0.75434893    -0.32700
C927        C  0.99092868  0.75187243  0.75087403     0.36600
C928        C  0.99971551  0.76265389  0.72907479    -0.05600
C929        C  0.98989643  0.76578235  0.71130099    -0.32600
C930        C  0.97160206  0.75817946  0.71484770     0.36500
H931        H  0.96620935  0.73559095  0.77082398     0.16900
O932        O  0.99974730  0.74770569  0.76804186    -0.60100
H933        H  0.99643275  0.77424229  0.69462482     0.16900
O934        O  0.96260758  0.76211164  0.69765452    -0.60200
H935        H  0.96154989  0.75538261  0.68154036     0.43900
H936        H  0.00108198  0.75461813  0.78406901     0.43800
C937        C  0.82493760  0.66367019  0.66402845    -0.05200
C938        C  0.83000295  0.66281446  0.63835972    -0.32700
C939        C  0.81746406  0.65554160  0.61846486     0.36600
C940        C  0.79948366  0.64919537  0.62398828    -0.05600
C941        C  0.79449473  0.65026532  0.64967220    -0.32600
C942        C  0.80703243  0.65750711  0.66954371     0.36500
H943        H  0.84368024  0.66737339  0.63377596     0.16900
O944        O  0.82294960  0.65433249  0.59389488    -0.60100
H945        H  0.78085113  0.64575185  0.65438448     0.16900
O946        O  0.80165233  0.65882116  0.69415612    -0.60200
H947        H  0.80362563  0.67084327  0.69513027     0.43900
H948        H  0.82118489  0.64239742  0.59293967     0.43800
C949        C  0.33585657  0.43338544  0.38910332    -0.05200
C950        C  0.33006105  0.43721751  0.41240440    -0.32700
C951        C  0.31195349  0.42860300  0.41861164     0.36600
C952        C  0.29920757  0.41600225  0.40127330    -0.05600
C953        C  0.30492631  0.41256567  0.37765485    -0.32600
C954        C  0.32300836  0.42104701  0.37151325     0.36500
H955        H  0.33958467  0.44690987  0.42601211     0.16900
O956        O  0.30684445  0.43301132  0.44127074    -0.60100
H957        H  0.29536876  0.40272554  0.36422023     0.16900
O958        O  0.32788283  0.41622852  0.34905676    -0.60200
H959        H  0.32555897  0.42209546  0.33482231     0.43900
H960        H  0.30996508  0.42774908  0.45543630     0.43800
C961        C  0.15976112  0.33125895  0.33894257    -0.05200
C962        C  0.16091761  0.34216275  0.31857294    -0.32700
C963        C  0.14811190  0.33551966  0.29896025     0.36600
C964        C  0.13386342  0.31762740  0.29944752    -0.05600
C965        C  0.13286477  0.30671057  0.31969272    -0.32600
C966        C  0.14558797  0.31336679  0.33933852     0.36500
H967        H  0.17158810  0.35601352  0.31812128     0.16900
O968        O  0.14917534  0.34686625  0.28023164    -0.60100
H969        H  0.12231190  0.29282374  0.32017293     0.16900
O970        O  0.14451532  0.30202200  0.35808620    -0.60200
H971        H  0.13444963  0.29967256  0.36954172     0.43900
H972        H  0.15910208  0.34905024  0.26858666     0.43800
C973        C  0.62701765  0.07810134  0.07427374    -0.05200
C974        C  0.63929516  0.09087438  0.09179163    -0.32700
C975        C  0.65761524  0.09931331  0.08736344     0.36600
C976        C  0.66400148  0.09500999  0.06505384    -0.05600
C977        C  0.65168630  0.08237645  0.04741113    -0.32600
C978        C  0.63340053  0.07399849  0.05178841     0.36500
H979        H  0.63468458  0.09441357  0.10901274     0.16900
O980        O  0.66909823  0.11220770  0.10446060    -0.60100
H981        H  0.65617724  0.07854875  0.03038274     0.16900
O982        O  0.62195830  0.06101003  0.03477839    -0.60200
H983        H  0.62190907  0.06740359  0.01916632     0.43900
H984        H  0.66866773  0.10578225  0.12034505     0.43800
C985        C  0.95991542  0.20408618  0.24207792    -0.05200
C986        C  0.97123737  0.20399436  0.26070016    -0.32700
C987        C  0.98959709  0.21295331  0.25629691     0.36600
C988        C  0.99699561  0.22210810  0.23277501    -0.05600
C989        C  0.98563342  0.22185166  0.21390180    -0.32600
C990        C  0.96730562  0.21303680  0.21838535     0.36500
H991        H  0.96586690  0.19698301  0.27887925     0.16900
O992        O  0.00009561  0.21220494  0.27479278    -0.60100
H993        H  0.99100208  0.22906404  0.19587479     0.16900
O994        O  0.95699086  0.21435881  0.20020478    -0.60200
H995        H  0.95574035  0.20626004  0.18582454     0.43900
H996        H  0.00058361  0.21988472  0.28930612     0.43800
C997        C  0.82236628  0.15132754  0.17955320    -0.05200
C998        C  0.82311308  0.14194388  0.15800170    -0.32700
C999        C  0.81118695  0.13684744  0.13742464     0.36600
C1000       C  0.79815745  0.14120772  0.13798311    -0.05600
C1001       C  0.79734934  0.15052941  0.15964932    -0.32600
C1002       C  0.80923075  0.15551797  0.18033856     0.36500
H1003       H  0.83283833  0.13824535  0.15721509     0.16900
O1004       O  0.81187682  0.12682770  0.11755649    -0.60100
H1005       H  0.78764402  0.15424838  0.16045922     0.16900
O1006       O  0.80842633  0.16526076  0.20054023    -0.60200
H1007       H  0.79786927  0.15669975  0.21099834     0.43900
H1008       H  0.82270250  0.13510884  0.10734550     0.43800
C1009       C  0.76592574  0.10525161  0.93297481    -0.05200
C1010       C  0.77308783  0.09459337  0.93199692    -0.32700
C1011       C  0.77808639  0.09065268  0.90819553     0.36600
C1012       C  0.77618882  0.09762393  0.88493172    -0.05600
C1013       C  0.76930191  0.10851508  0.88599123    -0.32600
C1014       C  0.76399154  0.11217721  0.90971879     0.36500
H1015       H  0.77468726  0.08918154  0.94973883     0.16900
O1016       O  0.78511118  0.08026926  0.90798190    -0.60100
H1017       H  0.76781739  0.11406053  0.86830863     0.16900
O1018       O  0.75775101  0.12324306  0.91011148    -0.60200
H1019       H  0.74537313  0.11590031  0.90381259     0.43900
H1020       H  0.79813400  0.08870831  0.90906028     0.43800
C1021       C  0.85406645  0.19405585  0.43618371    -0.05200
C1022       C  0.84717995  0.19800814  0.41484851    -0.32700
C1023       C  0.84991498  0.19411078  0.38938937     0.36600
C1024       C  0.86014898  0.18660902  0.38491552    -0.05600
C1025       C  0.86707093  0.18270494  0.40628446    -0.32600
C1026       C  0.86388802  0.18611730  0.43177394     0.36500
H1027       H  0.83961785  0.20413852  0.41792070     0.16900
O1028       O  0.84340036  0.19864210  0.36900520    -0.60100
H1029       H  0.87496181  0.17692911  0.40324391     0.16900
O1030       O  0.87132059  0.18261067  0.45209957    -0.60200
H1031       H  0.86374650  0.16959007  0.45461145     0.43900
H1032       H  0.83052487  0.18944427  0.36860829     0.43800
C1033       C  0.82839362  0.16405418  0.64410290    -0.05200
C1034       C  0.81908481  0.16451891  0.66604345    -0.32700
C1035       C  0.81419360  0.15233331  0.68626201     0.36600
C1036       C  0.81860199  0.13939170  0.68467887    -0.05600
C1037       C  0.82809884  0.13908159  0.66295071    -0.32600
C1038       C  0.83302098  0.15125412  0.64279052     0.36500
H1039       H  0.81519412  0.17408409  0.66729398     0.16900
O1040       O  0.80420904  0.15253333  0.70665519    -0.60100
H1041       H  0.83190447  0.12944790  0.66165187     0.16900
O1042       O  0.84306754  0.15102055  0.62251752    -0.60200
H1043       H  0.83491901  0.14017247  0.61231403     0.43900
H1044       H  0.81261438  0.16286133  0.71755941     0.43800
C1045       C  0.89132082  0.33521852  0.58268593    -0.05200
C1046       C  0.88193430  0.32782165  0.55947397    -0.32700
C1047       C  0.87347101  0.30961498  0.55424429     0.36600
C1048       C  0.87442650  0.29836239  0.57224058    -0.05600
C1049       C  0.88379536  0.30575824  0.59544926    -0.32600
C1050       C  0.89217579  0.32394070  0.60076332     0.36500
H1051       H  0.88094565  0.33615194  0.54537251     0.16900
O1052       O  0.86413487  0.30300589  0.53159029    -0.60100
H1053       H  0.88504779  0.29751044  0.60938088     0.16900
O1054       O  0.90205388  0.33063983  0.62296182    -0.60200
H1055       H  0.89328609  0.32687274  0.63740952     0.43900
H1056       H  0.85172129  0.29897547  0.53629100     0.43800
C1057       C  0.96708963  0.47226002  0.50743876    -0.05200
C1058       C  0.97199523  0.48989145  0.51157601    -0.32700
C1059       C  0.97893220  0.50220808  0.49123628     0.36600
C1060       C  0.98103226  0.49697360  0.46611919    -0.05600
C1061       C  0.97580637  0.47927048  0.46185998    -0.32600
C1062       C  0.96904818  0.46701498  0.48222629     0.36500
H1063       H  0.97031606  0.49416169  0.53063282     0.16900
O1064       O  0.98282253  0.51908277  0.49587037    -0.60100
H1065       H  0.97743072  0.47498091  0.44278411     0.16900
O1066       O  0.96494211  0.45010744  0.47731267    -0.60200
H1067       H  0.97587720  0.45032408  0.48136065     0.43900
H1068       H  0.99379957  0.52494992  0.50637961     0.43800
C1069       C  0.73779112  0.96401135  0.72643574    -0.05200
C1070       C  0.74781665  0.96935874  0.74933626    -0.32700
C1071       C  0.75860690  0.98730540  0.75600726     0.36600
C1072       C  0.75961566  0.00029885  0.73954855    -0.05600
C1073       C  0.74996974  0.99500259  0.71629079    -0.32600
C1074       C  0.73907266  0.97703422  0.70969490     0.36500
H1075       H  0.74731787  0.95959260  0.76221052     0.16900
O1076       O  0.76854018  0.99202769  0.77822911    -0.60100
H1077       H  0.75030972  0.00476721  0.70359831     0.16900
O1078       O  0.72884058  0.97236881  0.68780884    -0.60200
H1079       H  0.73713766  0.97507926  0.67297866     0.43900
H1080       H  0.75992005  0.98846637  0.79285375     0.43800
C1081       C  0.64959227  0.82804601  0.79912533    -0.05200
C1082       C  0.64258085  0.81008409  0.79323678    -0.32700
C1083       C  0.63551528  0.79722478  0.81275305     0.36600
C1084       C  0.63547305  0.80219033  0.83887381    -0.05600
C1085       C  0.64264706  0.82014842  0.84491282    -0.32600
C1086       C  0.64961377  0.83303233  0.82533630     0.36500
H1087       H  0.64275885  0.80591120  0.77341040     0.16900
O1088       O  0.62951424  0.77997260  0.80620051    -0.60100
H1089       H  0.64252957  0.82420542  0.86484905     0.16900
O1090       O  0.65554388  0.85025446  0.83195269    -0.60200
H1091       H  0.66705146  0.85484920  0.84071979     0.43900
H1092       H  0.61806599  0.77544016  0.79728953     0.43800
C1093       C  0.18172192  0.85693704  0.09108905    -0.05200
C1094       C  0.17033304  0.83978375  0.08105781    -0.32700
C1095       C  0.17465249  0.83432495  0.05805949     0.36600
C1096       C  0.19072235  0.84599440  0.04499316    -0.05600
C1097       C  0.20246725  0.86287274  0.05562199    -0.32600
C1098       C  0.19808763  0.86838630  0.07847537     0.36500
H1099       H  0.15783632  0.83067811  0.09073696     0.16900
O1100       O  0.16338597  0.81737257  0.04899027    -0.60100
H1101       H  0.21494653  0.87198835  0.04590756     0.16900
O1102       O  0.20999793  0.88491280  0.08838564    -0.60200
H1103       H  0.21695845  0.88302244  0.10130666     0.43900
H1104       H  0.15318359  0.81733197  0.04154963     0.43800
C1105       C  0.08459886  0.67165043  0.40337937    -0.05200
C1106       C  0.08672036  0.66067875  0.42022923    -0.32700
C1107       C  0.07749140  0.64227770  0.41617429     0.36600
C1108       C  0.06588449  0.63452690  0.39490952    -0.05600
C1109       C  0.06402288  0.64559862  0.37788178    -0.32600
C1110       C  0.07312944  0.66389894  0.38199275     0.36500
H1111       H  0.09564098  0.66637842  0.43659509     0.16900
O1112       O  0.08045251  0.63214333  0.43253954    -0.60100
H1113       H  0.05500999  0.64006476  0.36162622     0.16900
O1114       O  0.07015346  0.67391052  0.36539720    -0.60200
H1115       H  0.06031444  0.67445937  0.37351139     0.43900
H1116       H  0.07432983  0.63160880  0.44909764     0.43800
C1117       C  0.13035804  0.80492807  0.33379508    -0.05200
C1118       C  0.13817091  0.80296887  0.31119329    -0.32700
C1119       C  0.14231592  0.81416691  0.28990923     0.36600
C1120       C  0.13860217  0.82762099  0.29097474    -0.05600
C1121       C  0.13076733  0.82958846  0.31355978    -0.32600
C1122       C  0.12665692  0.81838706  0.33490356     0.36500
H1123       H  0.14145420  0.79293796  0.31017298     0.16900
O1124       O  0.15095445  0.81250824  0.26884052    -0.60100
H1125       H  0.12763497  0.83973090  0.31458777     0.16900
O1126       O  0.11828956  0.82017932  0.35620921    -0.60200
H1127       H  0.12759671  0.83097010  0.36542829     0.43900
H1128       H  0.14184607  0.80159878  0.25962119     0.43800
C1129       C  0.11337421  0.77667001  0.54272520    -0.05200
C1130       C  0.10514458  0.78628738  0.54527673    -0.32700
C1131       C  0.10068629  0.78976731  0.56986177     0.36600
C1132       C  0.10488951  0.78399784  0.59239094    -0.05600
C1133       C  0.11378685  0.77502218  0.58983014    -0.32600
C1134       C  0.11781283  0.77113039  0.56523655     0.36500
H1135       H  0.10167971  0.79069875  0.52814334     0.16900
O1136       O  0.09272961  0.79927697  0.57168782    -0.60100
H1137       H  0.11719162  0.77052225  0.60692202     0.16900
O1138       O  0.12655281  0.76237972  0.56341364    -0.60200
H1139       H  0.11754791  0.74986634  0.56783939     0.43900
H1140       H  0.08029681  0.79096564  0.56615219     0.43800
C1141       C  0.22275293  0.00060853  0.23019168    -0.05200
C1142       C  0.20871669  0.98930286  0.24698386    -0.32700
C1143       C  0.19777129  0.97113974  0.24150048     0.36600
C1144       C  0.20096210  0.96396158  0.21903254    -0.05600
C1145       C  0.21471075  0.97544383  0.20187446    -0.32600
C1146       C  0.22547339  0.99360916  0.20719328     0.36500
H1147       H  0.20618988  0.99457105  0.26444812     0.16900
O1148       O  0.18366222  0.96068152  0.25775365    -0.60100
H1149       H  0.21760492  0.97031841  0.18462350     0.16900
O1150       O  0.23938189  0.00415202  0.19068858    -0.60200
H1151       H  0.23396660  0.00610746  0.17543827     0.43900
H1152       H  0.18893534  0.95983140  0.27409513     0.43800
C1153       C  0.30679436  0.14022797  0.17283728    -0.05200
C1154       C  0.32425211  0.15500821  0.17440070    -0.32700
C1155       C  0.33151996  0.16764325  0.15453929     0.36600
C1156       C  0.32118984  0.16580652  0.13278232    -0.05600
C1157       C  0.30364236  0.15117187  0.13145118    -0.32600
C1158       C  0.29640638  0.13851455  0.15123708     0.36500
H1159       H  0.33252988  0.15651655  0.19069131     0.16900
O1160       O  0.34891257  0.18136389  0.15625763    -0.60100
H1161       H  0.29537447  0.14959581  0.11510983     0.16900
O1162       O  0.27908146  0.12466538  0.14933282    -0.60200
H1163       H  0.27209621  0.12863697  0.15894273     0.43900
H1164       H  0.35580075  0.17701764  0.14733292     0.43800
C1165       C  0.52849703  0.62790581  0.89192982    -0.05200
C1166       C  0.52472649  0.63389237  0.91504988    -0.32700
C1167       C  0.53375787  0.65199254  0.92117611     0.36600
C1168       C  0.54690937  0.66455083  0.90411981    -0.05600
C1169       C  0.55058036  0.65862621  0.88090563    -0.32600
C1170       C  0.54159238  0.64052733  0.87476464     0.36500
H1171       H  0.51463890  0.62451707  0.92844863     0.16900
O1172       O  0.52950762  0.65722131  0.94383646    -0.60100
H1173       H  0.56088996  0.66800952  0.86776339     0.16900
O1174       O  0.54659863  0.63534924  0.85279936    -0.60200
H1175       H  0.54171348  0.63841294  0.83803756     0.43900
H1176       H  0.52038914  0.65974019  0.93890742     0.43800
C1177       C  0.50937341  0.52411745  0.75856753    -0.05200
C1178       C  0.52493856  0.53686859  0.74552278    -0.32700
C1179       C  0.52999413  0.53268660  0.72201176     0.36600
C1180       C  0.51923455  0.51565029  0.71101558    -0.05600
C1181       C  0.50347507  0.50306125  0.72369991    -0.32600
C1182       C  0.49865629  0.50707754  0.74755493     0.36500
H1183       H  0.53336482  0.55001715  0.75379338     0.16900
O1184       O  0.54533529  0.54539762  0.70980751    -0.60100
H1185       H  0.49503976  0.48993912  0.71534155     0.16900
O1186       O  0.48311210  0.49449034  0.75945451    -0.60200
H1187       H  0.48563725  0.48596061  0.76716362     0.43900
H1188       H  0.54161033  0.55116205  0.69736638     0.43800
C1189       C  0.42518169  0.33964308  0.07614045    -0.05200
C1190       C  0.41455878  0.33414129  0.05384676    -0.32700
C1191       C  0.40370938  0.31613887  0.04734153     0.36600
C1192       C  0.40355768  0.30321579  0.06305772    -0.05600
C1193       C  0.41428044  0.30878949  0.08531289    -0.32600
C1194       C  0.42485973  0.32677395  0.09205715     0.36500
H1195       H  0.41427751  0.34380882  0.04170785     0.16900
O1196       O  0.39257662  0.31135126  0.02649224    -0.60100
H1197       H  0.41459804  0.29920099  0.09756946     0.16900
O1198       O  0.43537557  0.33165954  0.11366074    -0.60200
H1199       H  0.42717152  0.32855507  0.12873591     0.43900
H1200       H  0.40034241  0.31464522  0.01085010     0.43800
C1201       C  0.48334489  0.47465685  0.00684641    -0.05200
C1202       C  0.47382066  0.46683175  0.98387726    -0.32700
C1203       C  0.47469086  0.47722440  0.96309474     0.36600
C1204       C  0.48537796  0.49587948  0.96481043    -0.05600
C1205       C  0.49499578  0.50374988  0.98768805    -0.32600
C1206       C  0.49417046  0.49333337  0.00848325     0.36500
H1207       H  0.46521400  0.45255553  0.98216914     0.16900
O1208       O  0.46461747  0.46893069  0.94150246    -0.60100
H1209       H  0.50347529  0.51805044  0.98932515     0.16900
O1210       O  0.50422779  0.50160722  0.03009071    -0.60200
H1211       H  0.51551417  0.50219995  0.02696592     0.43900
H1212       H  0.45333802  0.46835559  0.94461592     0.43800
C1213       C  0.44486799  0.45654091  0.25945753    -0.05200
C1214       C  0.43248390  0.44055026  0.24706255    -0.32700
C1215       C  0.43686215  0.43521607  0.22404224     0.36600
C1216       C  0.45385510  0.44597379  0.21282907    -0.05600
C1217       C  0.46623797  0.46207343  0.22498332    -0.32600
C1218       C  0.46195797  0.46726413  0.24839539     0.36500
H1219       H  0.41933093  0.43203392  0.25533621     0.16900
O1220       O  0.42423445  0.41966098  0.21231846    -0.60100
H1221       H  0.47931345  0.47056253  0.21642896     0.16900
O1222       O  0.47426810  0.48316857  0.25964543    -0.60200
H1223       H  0.48274714  0.48098782  0.26837327     0.43900
H1224       H  0.41855996  0.42314463  0.19933352     0.43800
C1225       C  0.43432809  0.98229708  0.76223803    -0.05200
C1226       C  0.43141777  0.97139926  0.74058249    -0.32700
C1227       C  0.43527640  0.97837812  0.71545539     0.36600
C1228       C  0.44175854  0.99647702  0.71172364    -0.05600
C1229       C  0.44457182  0.00734588  0.73346516    -0.32600
C1230       C  0.44107667  0.00042256  0.75863189     0.36500
H1231       H  0.42612074  0.95739109  0.74314863     0.16900
O1232       O  0.43162817  0.96716172  0.69467847    -0.60100
H1233       H  0.44946652  0.02126716  0.73096562     0.16900
O1234       O  0.44324408  0.01120765  0.77939645    -0.60200
H1235       H  0.45620859  0.01846117  0.78248868     0.43900
H1236       H  0.44123170  0.96473090  0.69443619     0.43800
C1237       C  0.48817272  0.98180229  0.46832822    -0.05200
C1238       C  0.48839840  0.99741932  0.46377385    -0.32700
C1239       C  0.48150005  0.00396256  0.48213791     0.36600
C1240       C  0.47420594  0.99492254  0.50576935    -0.05600
C1241       C  0.47379345  0.97921138  0.51019393    -0.32600
C1242       C  0.48069583  0.97267427  0.49186548     0.36500
H1243       H  0.49426051  0.00487448  0.44606430     0.16900
O1244       O  0.48285266  0.01969773  0.47729113    -0.60100
H1245       H  0.46793603  0.97176965  0.52792006     0.16900
O1246       O  0.47932888  0.95694288  0.49679064    -0.60200
H1247       H  0.48849183  0.95982016  0.51002357     0.43900
H1248       H  0.47345176  0.01676390  0.46445954     0.43800
C1249       C  0.52572993  0.99592508  0.21462528    -0.05200
C1250       C  0.51768301  0.97748502  0.21641927    -0.32700
C1251       C  0.51525269  0.96940580  0.24066939     0.36600
C1252       C  0.52046589  0.97977225  0.26358956    -0.05600
C1253       C  0.52798235  0.99814094  0.26173903    -0.32600
C1254       C  0.53079344  0.00624518  0.23751743     0.36500
H1255       H  0.51362998  0.96936482  0.19893734     0.16900
O1256       O  0.50712055  0.95133095  0.24183141    -0.60100
H1257       H  0.53197479  0.00634602  0.27912475     0.16900
O1258       O  0.53783427  0.02416754  0.23646313    -0.60200
H1259       H  0.55069508  0.02981732  0.23970668     0.43900
H1260       H  0.51631831  0.94894107  0.23624277     0.43800
C1261       C  0.30206883  0.18955212  0.87785833    -0.05200
C1262       C  0.30519456  0.17728439  0.88927159    -0.32700
C1263       C  0.31346148  0.18080303  0.91358089     0.36600
C1264       C  0.31922702  0.19703525  0.92638169    -0.05600
C1265       C  0.31631745  0.20935498  0.91472433    -0.32600
C1266       C  0.30766488  0.20566872  0.89087832     0.36500
H1267       H  0.30106223  0.16486554  0.87943805     0.16900
O1268       O  0.31656453  0.16868456  0.92404849    -0.60100
H1269       H  0.32059993  0.22189858  0.92425944     0.16900
O1270       O  0.30561237  0.21834350  0.87982954    -0.60200
H1271       H  0.29591495  0.21806452  0.88991561     0.43900
H1272       H  0.30499103  0.15925509  0.93143232     0.43800
C1273       C  0.31933862  0.10995110  0.42720173    -0.05200
C1274       C  0.31557119  0.09417814  0.41500670    -0.32700
C1275       C  0.30827013  0.08967715  0.39013507     0.36600
C1276       C  0.30496257  0.10123289  0.37670344    -0.05600
C1277       C  0.30889283  0.11713545  0.38873711    -0.32600
C1278       C  0.31576739  0.12140318  0.41401569     0.36500
H1279       H  0.31818268  0.08517477  0.42485427     0.16900
O1280       O  0.30535162  0.07441688  0.37857193    -0.60100
H1281       H  0.30647288  0.12619039  0.37862138     0.16900
O1282       O  0.31973954  0.13715407  0.42512133    -0.60200
H1283       H  0.30820173  0.13509545  0.43123844     0.43900
H1284       H  0.29464548  0.06461356  0.38737039     0.43800
C1285       C  0.41227353  0.06856547  0.57600803    -0.05200
C1286       C  0.40134287  0.06354449  0.55411469    -0.32700
C1287       C  0.39130854  0.07098880  0.54928771     0.36600
C1288       C  0.39202957  0.08378447  0.56654137    -0.05600
C1289       C  0.40289463  0.08876977  0.58854479    -0.32600
C1290       C  0.41297438  0.08131509  0.59335190     0.36500
H1291       H  0.40023338  0.05348927  0.54083537     0.16900
O1292       O  0.38011833  0.06491908  0.52837056    -0.60100
H1293       H  0.40385960  0.09874397  0.60186651     0.16900
O1294       O  0.42409584  0.08723307  0.61434736    -0.60200
H1295       H  0.41621819  0.08206438  0.62982584     0.43900
H1296       H  0.38795482  0.06979149  0.51279673     0.43800
C1297       C  0.30033388  0.15407215  0.67209594    -0.05200
C1298       C  0.30312857  0.14034229  0.67713664    -0.32700
C1299       C  0.30986101  0.13423464  0.65784176     0.36600
C1300       C  0.31422958  0.14202328  0.63292815    -0.05600
C1301       C  0.31130567  0.15566704  0.62781813    -0.32600
C1302       C  0.30454139  0.16175617  0.64710765     0.36500
H1303       H  0.29981185  0.13406274  0.69605045     0.16900
O1304       O  0.31174995  0.12039329  0.66351332    -0.60100
H1305       H  0.31466219  0.16198459  0.60893332     0.16900
O1306       O  0.30259495  0.17556131  0.64142032    -0.60200
H1307       H  0.31392713  0.18641696  0.64663086     0.43900
H1308       H  0.30041510  0.10956565  0.65823664     0.43800
C1309       C  0.19688241  0.32717051  0.53979917    -0.05200
C1310       C  0.20946512  0.32515092  0.55254464    -0.32700
C1311       C  0.20578499  0.31725467  0.57704962     0.36600
C1312       C  0.18940421  0.31151322  0.58940695    -0.05600
C1313       C  0.17685866  0.31365060  0.57682313    -0.32600
C1314       C  0.18043463  0.32130735  0.55211465     0.36500
H1315       H  0.22220741  0.32963313  0.54345244     0.16900
O1316       O  0.21866168  0.31612477  0.58936948    -0.60100
H1317       H  0.16421447  0.30931275  0.58615327     0.16900
O1318       O  0.16792714  0.32336681  0.54053267    -0.60200
H1319       H  0.17101718  0.33544122  0.54560975     0.43900
H1320       H  0.21876280  0.30623206  0.58057334     0.43800
C1321       C  0.21263073  0.23711710  0.73107464    -0.05200
C1322       C  0.22611603  0.23901275  0.71429766    -0.32700
C1323       C  0.23450076  0.22982653  0.71870067     0.36600
C1324       C  0.22938396  0.21830442  0.74009502    -0.05600
C1325       C  0.21601664  0.21648908  0.75703731    -0.32600
C1326       C  0.20757507  0.22565754  0.75258765     0.36500
H1327       H  0.23046777  0.24793129  0.69787269     0.16900
O1328       O  0.24802034  0.23262834  0.70230999    -0.60100
H1329       H  0.21185904  0.20766907  0.77357301     0.16900
O1330       O  0.19416319  0.22297750  0.76910576    -0.60200
H1331       H  0.18308726  0.21342135  0.76084235     0.43900
H1332       H  0.25903468  0.24220658  0.71068086     0.43800
C1333       C  0.09781367  0.30490161  0.09300682    -0.05200
C1334       C  0.09393431  0.29318542  0.07203425    -0.32700
C1335       C  0.09618274  0.29905787  0.04628024     0.36600
C1336       C  0.10199353  0.31685934  0.04116192    -0.05600
C1337       C  0.10604032  0.32859984  0.06218208    -0.32600
C1338       C  0.10416700  0.32281780  0.08790251     0.36500
H1339       H  0.08900982  0.27935670  0.07561194     0.16900
O1340       O  0.09154876  0.28700786  0.02638114    -0.60100
H1341       H  0.11054227  0.34233428  0.05870641     0.16900
O1342       O  0.10741302  0.33451602  0.10784926    -0.60200
H1343       H  0.12052174  0.34213496  0.10904852     0.43900
H1344       H  0.10143349  0.28501858  0.02491424     0.43800
C1345       C  0.13011441  0.31634739  0.83249482    -0.05200
C1346       C  0.13920088  0.32799058  0.81174852    -0.32700
C1347       C  0.14736369  0.32372564  0.79211745     0.36600
C1348       C  0.14646143  0.30748896  0.79283677    -0.05600
C1349       C  0.13729479  0.29579507  0.81347457    -0.32600
C1350       C  0.12901887  0.29999010  0.83299942     0.36500
H1351       H  0.14039176  0.34069079  0.81100546     0.16900
O1352       O  0.15655818  0.33577016  0.77271306    -0.60100
H1353       H  0.13619573  0.28313362  0.81422959     0.16900
O1354       O  0.11962077  0.28779588  0.85215044    -0.60200
H1355       H  0.10727205  0.28060553  0.84569410     0.43900
H1356       H  0.16892117  0.34318091  0.77905027     0.43800
C1357       C  0.07046385  0.39062293  0.90936881    -0.05200
C1358       C  0.07656883  0.40312609  0.88927493    -0.32700
C1359       C  0.06913598  0.41330525  0.88548135     0.36600
C1360       C  0.05531973  0.41109556  0.90193917    -0.05600
C1361       C  0.04941077  0.39883260  0.92232123    -0.32600
C1362       C  0.05679983  0.38859829  0.92607638     0.36500
H1363       H  0.08729263  0.40517449  0.87656561     0.16900
O1364       O  0.07598440  0.42591447  0.86631889    -0.60100
H1365       H  0.03862638  0.39675203  0.93492331     0.16900
O1366       O  0.04979287  0.37590038  0.94510326    -0.60200
H1367       H  0.05405518  0.38252177  0.96178763     0.43900
H1368       H  0.07188450  0.41920562  0.84967999     0.43800
C1369       C  0.98965204  0.44721569  0.76265089    -0.05200
C1370       C  0.99022353  0.46104630  0.74910932    -0.32700
C1371       C  0.98210253  0.45795979  0.72479140     0.36600
C1372       C  0.97300352  0.44074713  0.71384180    -0.05600
C1373       C  0.97230139  0.42691381  0.72766019    -0.32600
C1374       C  0.98061321  0.43005100  0.75174122     0.36500
H1375       H  0.99705664  0.47430329  0.75737772     0.16900
O1376       O  0.98285039  0.47179464  0.71224084    -0.60100
H1377       H  0.96536468  0.41356636  0.71975171     0.16900
O1378       O  0.97897418  0.41604858  0.76513255    -0.60200
H1379       H  0.98734862  0.41348131  0.75645673     0.43900
H1380       H  0.97167737  0.47101969  0.71713338     0.43800
C1381       C  0.97359332  0.49306875  0.00384149    -0.05200
C1382       C  0.97508125  0.47856998  0.00933424    -0.32700
C1383       C  0.98223700  0.47231763  0.99101287     0.36600
C1384       C  0.98818301  0.48064170  0.96660417    -0.05600
C1385       C  0.98666517  0.49513308  0.96108531    -0.32600
C1386       C  0.97937105  0.50129340  0.97933630     0.36500
H1387       H  0.97037997  0.47177953  0.02779807     0.16900
O1388       O  0.98242227  0.45747251  0.99670929    -0.60100
H1389       H  0.99131847  0.50190359  0.94260113     0.16900
O1390       O  0.97874806  0.51586539  0.97340274    -0.60200
H1391       H  0.96882318  0.51150967  0.96098529     0.43900
H1392       H  0.99217908  0.46148900  0.00933544     0.43800
C1393       C  0.96550839  0.52415551  0.20913498    -0.05200
C1394       C  0.96760755  0.51146707  0.22146474    -0.32700
C1395       C  0.97459199  0.51448606  0.24664112     0.36600
C1396       C  0.97979734  0.53049839  0.25977105    -0.05600
C1397       C  0.97787901  0.54323251  0.24724597    -0.32600
C1398       C  0.97071127  0.54014358  0.22229496     0.36500
H1399       H  0.96374406  0.49913044  0.21158843     0.16900
O1400       O  0.97661827  0.50186464  0.25791126    -0.60100
H1401       H  0.98186658  0.55567744  0.25686285     0.16900
O1402       O  0.96978094  0.55327759  0.21040782    -0.60200
H1403       H  0.95977897  0.55323312  0.21912374     0.43900
H1404       H  0.98901097  0.50549868  0.25385771     0.43800
C1405       C  0.63877767  0.85423040  0.54072284    -0.05200
C1406       C  0.62785050  0.84961667  0.56291682    -0.32700
C1407       C  0.63486769  0.85177184  0.58786638     0.36600
C1408       C  0.65317635  0.85908736  0.59088959    -0.05600
C1409       C  0.66409732  0.86367135  0.56871421    -0.32600
C1410       C  0.65700962  0.86107656  0.54374597     0.36500
H1411       H  0.61381518  0.84438263  0.56092351     0.16900
O1412       O  0.62395027  0.84784016  0.60916261    -0.60100
H1413       H  0.67823281  0.86945007  0.57076405     0.16900
O1414       O  0.66821479  0.86639379  0.52255966    -0.60200
H1415       H  0.67091589  0.85706291  0.51999538     0.43900
H1416       H  0.61742505  0.83475270  0.61084936     0.43800
C1417       C  0.56383982  0.88550297  0.40907874    -0.05200
C1418       C  0.56521432  0.89782997  0.42772270    -0.32700
C1419       C  0.55681451  0.90712013  0.42421886     0.36600
C1420       C  0.54652067  0.90405448  0.40184449    -0.05600
C1421       C  0.54493990  0.89153650  0.38338239    -0.32600
C1422       C  0.55338438  0.88228428  0.38685671     0.36500
H1423       H  0.57326982  0.90072478  0.44485881     0.16900
O1424       O  0.55929692  0.91955197  0.44249123    -0.60100
H1425       H  0.53696896  0.88873476  0.36616920     0.16900
O1426       O  0.55108804  0.86998754  0.36845950    -0.60200
H1427       H  0.54096022  0.85850823  0.37491174     0.43900
H1428       H  0.56971244  0.93088965  0.43619066     0.43800
C1429       C  0.65134320  0.77438117  0.09221810    -0.05200
C1430       C  0.63280747  0.76406314  0.09007678    -0.32700
C1431       C  0.62474262  0.75933503  0.06566461     0.36600
C1432       C  0.63526547  0.76536998  0.04284494    -0.05600
C1433       C  0.65382018  0.77596463  0.04503939    -0.32600
C1434       C  0.66188409  0.78028744  0.06947765     0.36500
H1435       H  0.62450482  0.75938977  0.10741032     0.16900
O1436       O  0.60656943  0.74950204  0.06439252    -0.60100
H1437       H  0.66215108  0.78074075  0.02774966     0.16900
O1438       O  0.68002074  0.79093449  0.07095686    -0.60200
H1439       H  0.68440299  0.78309121  0.06658695     0.43900
H1440       H  0.60295394  0.73724355  0.06899124     0.43800
C1441       C  0.64493259  0.80557504  0.29675077    -0.05200
C1442       C  0.64215619  0.81913560  0.29025008    -0.32700
C1443       C  0.63626555  0.82641752  0.30899598     0.36600
C1444       C  0.63277883  0.81997428  0.33470395    -0.05600
C1445       C  0.63509774  0.80609022  0.34097464    -0.32600
C1446       C  0.64102880  0.79886069  0.32227911     0.36500
H1447       H  0.64510640  0.82453578  0.27074833     0.16900
O1448       O  0.63461937  0.84024186  0.30214087    -0.60100
H1449       H  0.63221547  0.80071070  0.36048720     0.16900
O1450       O  0.64275319  0.78509272  0.32916558    -0.60200
H1451       H  0.63125353  0.77418664  0.32468168     0.43900
H1452       H  0.64612506  0.85111961  0.30669363     0.43800
C1453       C  0.85155237  0.64618181  0.91829334    -0.05200
C1454       C  0.84625125  0.63493809  0.89641964    -0.32700
C1455       C  0.84937515  0.64188105  0.87118803     0.36600
C1456       C  0.85840190  0.66037775  0.86763017    -0.05600
C1457       C  0.86361424  0.67155232  0.88952555    -0.32600
C1458       C  0.86008228  0.66460997  0.91467140     0.36500
H1459       H  0.83973602  0.62073637  0.89890005     0.16900
O1460       O  0.84454787  0.63058618  0.85022450    -0.60100
H1461       H  0.87054058  0.68579849  0.88717101     0.16900
O1462       O  0.86610496  0.67606812  0.93552390    -0.60200
H1463       H  0.85776447  0.68012821  0.93735115     0.43900
H1464       H  0.83155836  0.62503762  0.84859011     0.43800
C1465       C  0.89872314  0.55491063  0.06377363    -0.05200
C1466       C  0.90304973  0.56524180  0.04125066    -0.32700
C1467       C  0.89519925  0.57490894  0.03639011     0.36600
C1468       C  0.88259730  0.57425037  0.05409992    -0.05600
C1469       C  0.87797349  0.56357492  0.07627140    -0.32600
C1470       C  0.88572087  0.55381789  0.08101649     0.36500
H1471       H  0.91300623  0.56633802  0.02772653     0.16900
O1472       O  0.90043676  0.58538338  0.01467363    -0.60100
H1473       H  0.86808461  0.56255227  0.08986912     0.16900
O1474       O  0.88024737  0.54307002  0.10244593    -0.60200
H1475       H  0.87062876  0.53125222  0.09612185     0.43900
H1476       H  0.91013102  0.59727936  0.02061131     0.43800
C1477       C  0.76733092  0.65398399  0.36838928    -0.05200
C1478       C  0.77343332  0.66527495  0.39015647    -0.32700
C1479       C  0.77092413  0.65840859  0.41528878     0.36600
C1480       C  0.76162659  0.63991044  0.41899034    -0.05600
C1481       C  0.75538164  0.62859558  0.39717659    -0.32600
C1482       C  0.75843990  0.63552828  0.37195939     0.36500
H1483       H  0.78023568  0.67950359  0.38765739     0.16900
O1484       O  0.77666020  0.66984521  0.43616234    -0.60100
H1485       H  0.74812240  0.61434289  0.39969702     0.16900
O1486       O  0.75179841  0.62414453  0.35105293    -0.60200
H1487       H  0.76049255  0.62069892  0.34750497     0.43900
H1488       H  0.78967166  0.67521979  0.43671941     0.43800
C1489       C  0.74385491  0.73273660  0.23528847    -0.05200
C1490       C  0.73058220  0.73019047  0.25310739    -0.32700
C1491       C  0.72162030  0.73895225  0.25025936     0.36600
C1492       C  0.72594496  0.75074732  0.22942044    -0.05600
C1493       C  0.73920878  0.75331643  0.21157046    -0.32600
C1494       C  0.74817100  0.74451902  0.21440452     0.36500
H1495       H  0.72674707  0.72100861  0.26909379     0.16900
O1496       O  0.70828632  0.73539867  0.26756859    -0.60100
H1497       H  0.74283342  0.76236781  0.19544281     0.16900
O1498       O  0.76127085  0.74778769  0.19681451    -0.60200
H1499       H  0.77243061  0.75752277  0.20464657     0.43900
H1500       H  0.69731508  0.72538377  0.25972370     0.43800
C1501       C  0.82179064  0.64930179  0.12456104    -0.05200
C1502       C  0.81270463  0.63827699  0.14586787    -0.32700
C1503       C  0.80520586  0.64344031  0.16538625     0.36600
C1504       C  0.80679431  0.66001133  0.16397147    -0.05600
C1505       C  0.81574705  0.67096569  0.14253752    -0.32600
C1506       C  0.82315431  0.66575450  0.12294443     0.36500
H1507       H  0.81110309  0.62540856  0.14723569     0.16900
O1508       O  0.79559582  0.63177198  0.18502881    -0.60100
H1509       H  0.81734976  0.68383202  0.14113825     0.16900
O1510       O  0.83247760  0.67728096  0.10302548    -0.60200
H1511       H  0.82339207  0.67703272  0.09183291     0.43900
H1512       H  0.80447709  0.63161686  0.19618940     0.43800
loop_ 
_geom_bond_atom_site_label_1 
_geom_bond_atom_site_label_2 
_geom_bond_distance 
_geom_bond_site_symmetry_2 
_ccdc_geom_bond_type 
N1            N2   1.322       .  A
N1            C5   1.348       .  A
N1           Cu9   2.091       .  S
N2            C3   1.341       .  A
N2           Cu8   2.064       .  S
C3            C4   1.383       .  A
C3            H6   1.082       .  S
C4            C5   1.391       .  A
C4         C1489   1.487       .  S
C5            H7   1.081       .  S
Cu8          N11   2.063       .  S
Cu9          N19   2.091       .  S
Cu10         N12   2.066       .  S
Cu10         N18   2.067       .  S
N11          N12   1.320       .  A
N11          C15   1.344       .  A
N12          C13   1.345       .  A
C13          C14   1.383       .  A
C13          H16   1.082       .  S
C14          C15   1.383       .  A
C14        C1477   1.473       .  S
C15          H17   1.082       .  S
N18          N19   1.322       .  A
N18          C22   1.342       .  A
N19          C20   1.348       .  A
C20          C21   1.391       .  A
C20          H23   1.082       .  S
C21          C22   1.384       .  A
C21        C1504   1.488       .  S
C22          H24   1.081       .  S
N25          N26   1.323       .  A
N25          C29   1.348       .  A
N25         Cu33   2.095       .  S
N26          C27   1.342       .  A
N26         Cu32   2.066       .  S
C27          C28   1.383       .  A
C27          H30   1.081       .  S
C28          C29   1.390       .  A
C28        C1468   1.486       .  S
C29          H31   1.082       .  S
Cu32         N35   2.065   1_554  S
Cu33         N43   2.095       .  S
Cu34         N36   2.062   1_554  S
Cu34         N42   2.063       .  S
N35          N36   1.319       .  A
N35          C39   1.345       .  A
N36          C37   1.342       .  A
C37          C38   1.384       .  A
C37          H40   1.081       .  S
C38          C39   1.385       .  A
C38        C1453   1.476       .  S
C39          H41   1.082       .  S
N42          N43   1.322       .  A
N42          C46   1.342       .  A
N43          C44   1.349       .  A
C44          C45   1.391       .  A
C44          H47   1.082       .  S
C45          C46   1.383       .  A
C45        C1501   1.487       .  S
C46          H48   1.081       .  S
N49          N50   1.323       .  A
N49          C53   1.347       .  A
N49         Cu57   2.092       .  S
N50          C51   1.342       .  A
N50         Cu56   2.064       .  S
C51          C52   1.382       .  A
C51          H54   1.082       .  S
C52          C53   1.390       .  A
C52        C1492   1.485       .  S
C53          H55   1.081       .  S
Cu56         N59   2.063       .  S
Cu57         N67   2.092       .  S
Cu58         N60   2.061       .  S
Cu58         N66   2.061       .  S
N59          N60   1.320       .  A
N59          C63   1.344       .  A
N60          C61   1.342       .  A
C61          C62   1.383       .  A
C61          H64   1.082       .  S
C62          C63   1.384       .  A
C62        C1429   1.474       .  S
C63          H65   1.082       .  S
N66          N67   1.322       .  A
N66          C70   1.343       .  A
N67          C68   1.348       .  A
C68          C69   1.390       .  A
C68          H71   1.082       .  S
C69          C70   1.382       .  A
C69        C1441   1.483       .  S
C70          H72   1.082       .  S
N73          N74   1.322       .  A
N73          C77   1.346       .  A
N73         Cu81   2.084       .  S
N74          C75   1.344       .  A
N74         Cu80   2.075       .  S
C75          C76   1.387       .  A
C75          H78   1.082       .  S
C76          C77   1.389       .  A
C76        C1417   1.489       .  S
C77          H79   1.081       .  S
Cu80         N83   2.074       .  S
Cu81         N91   2.084       .  S
Cu82         N84   2.059       .  S
Cu82         N90   2.060       .  S
N83          N84   1.321       .  A
N83          C87   1.345       .  A
N84          C85   1.343       .  A
C85          C86   1.383       .  A
C85          H88   1.082       .  S
C86          C87   1.385       .  A
C86        C1405   1.476       .  S
C87          H89   1.082       .  S
N90          N91   1.321       .  A
N90          C94   1.341       .  A
N91          C92   1.348       .  A
C92          C93   1.389       .  A
C92          H95   1.081       .  S
C93          C94   1.382       .  A
C93        C1444   1.482       .  S
C94          H96   1.082       .  S
N97          N98   1.321       .  A
N97         C101   1.347       .  A
N97        Cu105   2.077       .  S
N98          C99   1.342       .  A
N98        Cu104   2.066       .  S
C99         C100   1.385       .  A
C99         H102   1.081       .  S
C100        C101   1.389       .  A
C100       C1465   1.485       .  S
C101        H103   1.082       .  S
Cu104       N107   2.066       .  S
Cu105       N115   2.077       .  S
Cu106       N108   2.073       .  S
Cu106       N114   2.074       .  S
N107        N108   1.320       .  A
N107        C111   1.342       .  A
N108        C109   1.347       .  A
C109        C110   1.386       .  A
C109        H112   1.082       .  S
C110        C111   1.384       .  A
C110       C1393   1.480       .  S
C111        H113   1.081       .  S
N114        N115   1.323       .  A
N114        C118   1.343       .  A
N115        C116   1.345       .  A
C116        C117   1.387       .  A
C116        H119   1.081       .  S
C117        C118   1.385       .  A
C117       C1381   1.483       .  S
C118        H120   1.082       .  S
N121        N122   1.322       .  A
N121        C125   1.349       .  A
N121       Cu129   2.084       .  S
N122        C123   1.342       .  A
N122       Cu128   2.067       .  S
C123        C124   1.383       .  A
C123        H126   1.081       .  S
C124        C125   1.389       .  A
C124       C1360   1.482       .  S
C125        H127   1.082       .  S
Cu128       N131   2.067       .  S
Cu129       N139   2.085       .  S
Cu130       N132   2.063       .  S
Cu130       N138   2.064       .  S
N131        N132   1.320       .  A
N131        C135   1.343       .  A
N132        C133   1.345   1_455  A
C133        C134   1.384       .  A
C133        H136   1.082       .  S
C134        C135   1.384   1_655  A
C134       C1369   1.475       .  S
C135        H137   1.082       .  S
N138        N139   1.323       .  A
N138        C142   1.342   1_455  A
N139        C140   1.345       .  A
C140        C141   1.389   1_455  A
C140        H143   1.081       .  S
C141        C142   1.383       .  A
C141       C1384   1.484       .  S
C142        H144   1.082       .  S
N145        N146   1.322       .  A
N145        C149   1.348       .  A
N145       Cu153   2.089       .  S
N146        C147   1.343       .  A
N146       Cu152   2.067       .  S
C147        C148   1.383       .  A
C147        H150   1.081       .  S
C148        C149   1.390       .  A
C148       C1357   1.485       .  S
C149        H151   1.082       .  S
Cu152       N155   2.066       .  S
Cu153       N163   2.089       .  S
Cu154       N156   2.065       .  S
Cu154       N162   2.066       .  S
N155        N156   1.319       .  A
N155        C159   1.343   1_556  A
N156        C157   1.345       .  A
C157        C158   1.387   1_556  A
C157        H160   1.081       .  S
C158        C159   1.386       .  A
C158       C1336   1.481       .  S
C159        H161   1.082       .  S
N162        N163   1.323       .  A
N162        C166   1.342       .  A
N163        C164   1.347       .  A
C164        C165   1.389       .  A
C164        H167   1.082       .  S
C165        C166   1.384       .  A
C165       C1345   1.485       .  S
C166        H168   1.081       .  S
N169        N170   1.320       .  A
N169        C173   1.348       .  A
N169       Cu177   2.086       .  S
N170        C171   1.342       .  A
N170       Cu176   2.062       .  S
C171        C172   1.385       .  A
C171        H174   1.082       .  S
C172        C173   1.390       .  A
C172       C1321   1.486       .  S
C173        H175   1.081       .  S
Cu176       N179   2.061       .  S
Cu177       N187   2.086       .  S
Cu178       N180   2.068       .  S
Cu178       N186   2.069       .  S
N179        N180   1.321       .  A
N179        C183   1.341       .  A
N180        C181   1.345       .  A
C181        C182   1.383       .  A
C181        H184   1.082       .  S
C182        C183   1.381       .  A
C182       C1312   1.472       .  S
C183        H185   1.082       .  S
N186        N187   1.323       .  A
N186        C190   1.344       .  A
N187        C188   1.345       .  A
C188        C189   1.387       .  A
C188        H191   1.082       .  S
C189        C190   1.384       .  A
C189       C1348   1.483       .  S
C190        H192   1.082       .  S
N193        N194   1.321       .  A
N193        C197   1.349       .  A
N193       Cu201   2.093       .  S
N194        C195   1.342       .  A
N194       Cu200   2.060       .  S
C195        C196   1.384       .  A
C195        H198   1.081       .  S
C196        C197   1.391       .  A
C196       C1288   1.487       .  S
C197        H199   1.082       .  S
Cu200       N203   2.060       .  S
Cu201       N211   2.094       .  S
Cu202       N204   2.068       .  S
Cu202       N210   2.070       .  S
N203        N204   1.321       .  A
N203        C207   1.341       .  A
N204        C205   1.346       .  A
C205        C206   1.385       .  A
C205        H208   1.082       .  S
C206        C207   1.382       .  A
C206       C1273   1.476       .  S
C207        H209   1.082       .  S
N210        N211   1.323       .  A
N210        C214   1.344       .  A
N211        C212   1.347       .  A
C212        C213   1.390       .  A
C212        H215   1.081       .  S
C213        C214   1.385       .  A
C213       C1300   1.488       .  S
C214        H216   1.082       .  S
N217        N218   1.322       .  A
N217        C221   1.346       .  A
N217       Cu225   2.084       .  S
N218        C219   1.345       .  A
N218       Cu224   2.069       .  S
C219        C220   1.384       .  A
C219        H222   1.082       .  S
C220        C221   1.388       .  A
C220       C1324   1.483       .  S
C221        H223   1.082       .  S
Cu224       N227   2.069       .  S
Cu225       N235   2.084       .  S
Cu226       N228   2.073       .  S
Cu226       N234   2.074       .  S
N227        N228   1.321       .  A
N227        C231   1.343       .  A
N228        C229   1.346       .  A
C229        C230   1.384       .  A
C229        H232   1.082       .  S
C230        C231   1.384       .  A
C230       C1261   1.479       .  S
C231        H233   1.081       .  S
N234        N235   1.322       .  A
N234        C238   1.344       .  A
N235        C236   1.347       .  A
C236        C237   1.389       .  A
C236        H239   1.081       .  S
C237        C238   1.386       .  A
C237       C1297   1.487       .  S
C238        H240   1.082       .  S
N241        N242   1.323       .  A
N241        C245   1.346       .  A
N241       Cu249   2.089       .  S
N242        C243   1.344       .  A
N242       Cu248   2.078       .  S
C243        C244   1.386       .  A
C243        H246   1.082       .  S
C244        C245   1.390       .  A
C244       C1420   1.490       .  S
C245        H247   1.081       .  S
Cu248       N251   2.077       .  S
Cu249       N259   2.088       .  S
Cu250       N252   2.060       .  S
Cu250       N258   2.060       .  S
N251        N252   1.321       .  A
N251        C255   1.347       .  A
N252        C253   1.341       .  A
C253        C254   1.382       .  A
C253        H256   1.082       .  S
C254        C255   1.388       .  A
C254       C1252   1.479       .  S
C255        H257   1.082       .  S
N258        N259   1.320       .  A
N258        C262   1.343       .  A
N259        C260   1.347       .  A
C260        C261   1.393       .  A
C260        H263   1.080       .  S
C261        C262   1.385       .  A
C261       C1237   1.490       .  S
C262        H264   1.082       .  S
N265        N266   1.322       .  A
N265        C269   1.346       .  A
N265       Cu273   2.092       .  S
N266        C267   1.344       .  A
N266       Cu272   2.061       .  S
C267        C268   1.384       .  A
C267        H270   1.081       .  S
C268        C269   1.390       .  A
C268       C1285   1.486       .  S
C269        H271   1.082       .  S
Cu272       N275   2.060       .  S
Cu273       N283   2.092       .  S
Cu274       N276   2.058       .  S
Cu274       N282   2.060       .  S
N275        N276   1.320       .  A
N275        C279   1.342       .  A
N276        C277   1.342   1_545  A
C277        C278   1.384   1_565  A
C277        H280   1.081       .  S
C278        C279   1.383       .  A
C278       C1228   1.474   1_545  S
C279        H281   1.082       .  S
N282        N283   1.321       .  A
N282        C286   1.341   1_545  A
N283        C284   1.348       .  A
C284        C285   1.392       .  A
C284        H287   1.081       .  S
C285        C286   1.384   1_545  A
C285       C1240   1.488   1_545  S
C286        H288   1.082       .  S
N289        N290   1.322       .  A
N289        C293   1.345       .  A
N289       Cu297   2.070       .  S
N290        C291   1.344       .  A
N290       Cu296   2.073       .  S
C291        C292   1.384       .  A
C291        H294   1.082       .  S
C292        C293   1.382       .  A
C292       C1216   1.476       .  S
C293        H295   1.082       .  S
Cu296       N299   2.073       .  S
Cu297       N307   2.070       .  S
Cu298       N300   2.071       .  S
Cu298       N306   2.071       .  S
N299        N300   1.322       .  A
N299        C303   1.345       .  A
N300        C301   1.343       .  A
C301        C302   1.384       .  A
C301        H304   1.082       .  S
C302        C303   1.385       .  A
C302       C1189   1.479       .  S
C303        H305   1.081       .  S
N306        N307   1.320       .  A
N306        C310   1.344       .  A
N307        C308   1.344       .  A
C308        C309   1.387       .  A
C308        H311   1.081       .  S
C309        C310   1.388       .  A
C309       C1201   1.485       .  S
C310        H312   1.082       .  S
N313        N314   1.321       .  A
N313        C317   1.345       .  A
N313       Cu321   2.076       .  S
N314        C315   1.343       .  A
N314       Cu320   2.064       .  S
C315        C316   1.386       .  A
C315        H318   1.080       .  S
C316        C317   1.388       .  A
C316       C1165   1.485       .  S
C317        H319   1.082       .  S
Cu320       N323   2.064       .  S
Cu321       N331   2.076       .  S
Cu322       N324   2.062       .  S
Cu322       N330   2.063       .  S
N323        N324   1.321       .  A
N323        C327   1.344       .  A
N324        C325   1.342       .  A
C325        C326   1.383       .  A
C325        H328   1.082       .  S
C326        C327   1.383       .  A
C326       C1177   1.474       .  S
C327        H329   1.082       .  S
N330        N331   1.321       .  A
N330        C334   1.342       .  A
N331        C332   1.345       .  A
C332        C333   1.387       .  A
C332        H335   1.082       .  S
C333        C334   1.384       .  A
C333       C1204   1.482       .  S
C334        H336   1.081       .  S
N337        N338   1.321       .  A
N337        C341   1.347       .  A
N337       Cu345   2.074   1_556  S
N338        C339   1.341       .  A
N338       Cu344   2.065   1_556  S
C339        C340   1.383       .  A
C339        H342   1.082       .  S
C340        C341   1.386       .  A
C340       C1264   1.478       .  S
C341        H343   1.082       .  S
Cu344       N347   2.065       .  S
Cu345       N355   2.074       .  S
Cu346       N348   2.069       .  S
Cu346       N354   2.069       .  S
N347        N348   1.320       .  A
N347        C351   1.344       .  A
N348        C349   1.343       .  A
C349        C350   1.387       .  A
C349        H352   1.082       .  S
C350        C351   1.388       .  A
C350       C1192   1.485       .  S
C351        H353   1.080       .  S
N354        N355   1.322       .  A
N354        C358   1.344       .  A
N355        C356   1.343       .  A
C356        C357   1.385       .  A
C356        H359   1.082       .  S
C357        C358   1.385       .  A
C357       C1156   1.481       .  S
C358        H360   1.081       .  S
N361        N362   1.322       .  A
N361        C365   1.346       .  A
N361       Cu369   2.073       .  S
N362        C363   1.342       .  A
N362       Cu368   2.066       .  S
C363        C364   1.383       .  A
C363        H366   1.081       .  S
C364        C365   1.384       .  A
C364       C1276   1.476       .  S
C365        H367   1.082       .  S
Cu368       N371   2.066       .  S
Cu369       N379   2.073       .  S
Cu370       N372   2.064       .  S
Cu370       N378   2.065       .  S
N371        N372   1.321       .  A
N371        C375   1.344       .  A
N372        C373   1.343       .  A
C373        C374   1.383       .  A
C373        H376   1.081       .  S
C374        C375   1.384       .  A
C374       C1141   1.476       .  S
C375        H377   1.082       .  S
N378        N379   1.321       .  A
N378        C382   1.343       .  A
N379        C380   1.345       .  A
C380        C381   1.386       .  A
C380        H383   1.082       .  S
C381        C382   1.385       .  A
C381       C1153   1.481       .  S
C382        H384   1.081       .  S
N385        N386   1.322       .  A
N385        C389   1.342       .  A
N385       Cu393   2.062       .  S
N386        C387   1.343       .  A
N386       Cu392   2.067       .  S
C387        C388   1.384       .  A
C387        H390   1.082       .  S
C388        C389   1.382       .  A
C388       C1129   1.474       .  S
C389        H391   1.082       .  S
Cu392       N395   2.067       .  S
Cu393       N403   2.062       .  S
Cu394       N396   2.066       .  S
Cu394       N402   2.066       .  S
N395        N396   1.321       .  A
N395        C399   1.344       .  A
N396        C397   1.342       .  A
C397        C398   1.386       .  A
C397        H400   1.081       .  S
C398        C399   1.386       .  A
C398       C1105   1.481       .  S
C399        H401   1.082       .  S
N402        N403   1.320       .  A
N402        C406   1.342       .  A
N403        C404   1.344       .  A
C404        C405   1.385       .  A
C404        H407   1.081       .  S
C405        C406   1.384       .  A
C405       C1117   1.476       .  S
C406        H408   1.082       .  S
N409        N410   1.321       .  A
N409        C413   1.343       .  A
N409       Cu417   2.068       .  S
N410        C411   1.343       .  A
N410       Cu416   2.068       .  S
C411        C412   1.387       .  A
C411        H414   1.082       .  S
C412        C413   1.387       .  A
C412       C1144   1.483       .  S
C413        H415   1.080       .  S
Cu416       N419   2.067       .  S
Cu417       N427   2.068       .  S
Cu418       N420   2.055       .  S
Cu418       N426   2.056       .  S
N419        N420   1.320       .  A
N419        C423   1.343       .  A
N420        C421   1.342       .  A
C421        C422   1.382       .  A
C421        H424   1.082       .  S
C422        C423   1.385       .  A
C422       C1093   1.475       .  S
C423        H425   1.081       .  S
N426        N427   1.321       .  A
N426        C430   1.341       .  A
N427        C428   1.344       .  A
C428        C429   1.385       .  A
C428        H431   1.082       .  S
C429        C430   1.383       .  A
C429       C1120   1.476       .  S
C430        H432   1.081       .  S
N433        N434   1.322       .  A
N433        C437   1.345       .  A
N433       Cu441   2.074       .  S
N434        C435   1.342       .  A
N434       Cu440   2.062       .  S
C435        C436   1.381       .  A
C435        H438   1.082       .  S
C436        C437   1.384       .  A
C436       C1408   1.475       .  S
C437        H439   1.082       .  S
Cu440       N443   2.063       .  S
Cu441       N451   2.073       .  S
Cu442       N444   2.064       .  S
Cu442       N450   2.064       .  S
N443        N444   1.321       .  A
N443        C447   1.343       .  A
N444        C445   1.341       .  A
C445        C446   1.384       .  A
C445        H448   1.082       .  S
C446        C447   1.385       .  A
C446       C1069   1.478       .  S
C447        H449   1.081       .  S
N450        N451   1.320       .  A
N450        C454   1.344       .  A
N451        C452   1.343       .  A
C452        C453   1.388       .  A
C452        H455   1.082       .  S
C453        C454   1.387       .  A
C453       C1081   1.485       .  S
C454        H456   1.081       .  S
N457        N458   1.321       .  A
N457        C461   1.343       .  A
N457       Cu465   2.068       .  S
N458        C459   1.343   1_556  A
N458       Cu464   2.066       .  S
C459        C460   1.384       .  A
C459        H462   1.081       .  S
C460        C461   1.384   1_554  A
C460       C1432   1.478       .  S
C461        H463   1.082       .  S
Cu464       N467   2.065       .  S
Cu465       N475   2.068       .  S
Cu466       N468   2.073       .  S
Cu466       N474   2.073       .  S
N467        N468   1.321       .  A
N467        C471   1.344       .  A
N468        C469   1.344       .  A
C469        C470   1.386       .  A
C469        H472   1.082       .  S
C470        C471   1.385       .  A
C470       C1168   1.481       .  S
C471        H473   1.082       .  S
N474        N475   1.321       .  A
N474        C478   1.343       .  A
N475        C476   1.345       .  A
C476        C477   1.385       .  A
C476        H479   1.082       .  S
C477        C478   1.385       .  A
C477       C1084   1.480       .  S
C478        H480   1.081       .  S
N481        N482   1.322       .  A
N481        C485   1.347       .  A
N481       Cu489   2.078       .  S
N482        C483   1.342       .  A
N482       Cu488   2.066       .  S
C483        C484   1.384       .  A
C483        H486   1.082       .  S
C484        C485   1.388       .  A
C484       C1372   1.482       .  S
C485        H487   1.081       .  S
Cu488       N491   2.066       .  S
Cu489       N499   2.079       .  S
Cu490       N492   2.077       .  S
Cu490       N498   2.077       .  S
N491        N492   1.320       .  A
N491        C495   1.344       .  A
N492        C493   1.346       .  A
C493        C494   1.389       .  A
C493        H496   1.082       .  S
C494        C495   1.387       .  A
C494       C1045   1.487       .  S
C495        H497   1.081       .  S
N498        N499   1.322       .  A
N498        C502   1.344       .  A
N499        C500   1.346       .  A
C500        C501   1.387       .  A
C500        H503   1.082       .  S
C501        C502   1.386       .  A
C501       C1057   1.485       .  S
C502        H504   1.081       .  S
N505        N506   1.320   1_655  A
N505        C509   1.348       .  A
N505       Cu513   2.078       .  S
N506        C507   1.340       .  A
N506       Cu512   2.059       .  S
C507        C508   1.383   1_455  A
C507        H510   1.082       .  S
C508        C509   1.389       .  A
C508       C1396   1.481       .  S
C509        H511   1.082       .  S
Cu512       N515   2.058       .  S
Cu513       N523   2.080       .  S
Cu514       N516   2.074       .  S
Cu514       N522   2.076       .  S
N515        N516   1.319       .  A
N515        C519   1.340       .  A
N516        C517   1.347       .  A
C517        C518   1.391       .  A
C517        H520   1.081       .  S
C518        C519   1.385       .  A
C518       C1108   1.485       .  S
C519        H521   1.081       .  S
N522        N523   1.324   1_455  A
N522        C526   1.344       .  A
N523        C524   1.345       .  A
C524        C525   1.386       .  A
C524        H527   1.082       .  S
C525        C526   1.385   1_655  A
C525       C1060   1.483       .  S
C526        H528   1.081       .  S
N529        N530   1.322       .  A
N529        C533   1.345       .  A
N529       Cu537   2.078       .  S
N530        C531   1.345       .  A
N530       Cu536   2.077       .  S
C531        C532   1.387       .  A
C531        H534   1.081       .  S
C532        C533   1.388       .  A
C532       C1048   1.487       .  S
C533        H535   1.082       .  S
Cu536       N539   2.076       .  S
Cu537       N547   2.077       .  S
Cu538       N540   2.058       .  S
Cu538       N546   2.058       .  S
N539        N540   1.321       .  A
N539        C543   1.344       .  A
N540        C541   1.344       .  A
C541        C542   1.383       .  A
C541        H544   1.082       .  S
C542        C543   1.385       .  A
C542       C1021   1.477       .  S
C543        H545   1.082       .  S
N546        N547   1.321       .  A
N546        C550   1.340       .  A
N547        C548   1.346       .  A
C548        C549   1.387       .  A
C548        H551   1.082       .  S
C549        C550   1.382       .  A
C549       C1033   1.479       .  S
C550        H552   1.081       .  S
N553        N554   1.320       .  A
N553        C557   1.342       .  A
N553       Cu561   2.058       .  S
N554        C555   1.345       .  A
N554       Cu560   2.070       .  S
C555        C556   1.386       .  A
C555        H558   1.082       .  S
C556        C557   1.382       .  A
C556       C1012   1.476       .  S
C557        H559   1.082       .  S
Cu560       N563   2.070       .  S
Cu561       N571   2.058       .  S
Cu562       N564   2.064       .  S
Cu562       N570   2.065       .  S
N563        N564   1.321       .  A
N563        C567   1.342       .  A
N564        C565   1.344       .  A
C565        C566   1.384       .  A
C565        H568   1.082       .  S
C566        C567   1.384       .  A
C566       C1072   1.477       .  S
C567        H569   1.081       .  S
N570        N571   1.321       .  A
N570        C574   1.342       .  A
N571        C572   1.342       .  A
C572        C573   1.382       .  A
C572        H575   1.081       .  S
C573        C574   1.384       .  A
C573       C1036   1.475       .  S
C574        H576   1.082       .  S
N577        N578   1.321       .  A
N577        C581   1.344       .  A
N577       Cu585   2.068       .  S
N578        C579   1.344       .  A
N578       Cu584   2.071       .  S
C579        C580   1.385       .  A
C579        H582   1.082       .  S
C580        C581   1.385       .  A
C580       C1024   1.479       .  S
C581        H583   1.081       .  S
Cu584       N587   2.071       .  S
Cu585       N595   2.068       .  S
Cu586       N588   2.080       .  S
Cu586       N594   2.080       .  S
N587        N588   1.321       .  A
N587        C591   1.344       .  A
N588        C589   1.346       .  A
C589        C590   1.389       .  A
C589        H592   1.081       .  S
C590        C591   1.386       .  A
C590        C985   1.486       .  S
C591        H593   1.082       .  S
N594        N595   1.322       .  A
N594        C598   1.345       .  A
N595        C596   1.344       .  A
C596        C597   1.385       .  A
C596        H599   1.081       .  S
C597        C598   1.387       .  A
C597        C997   1.484       .  S
C598        H600   1.082       .  S
N601        N602   1.322       .  A
N601        C605   1.345       .  A
N601       Cu609   2.078       .  S
N602        C603   1.344       .  A
N602       Cu608   2.075       .  S
C603        C604   1.387       .  A
C603        H606   1.082       .  S
C604        C605   1.387       .  A
C604        C976   1.486       .  S
C605        H607   1.081       .  S
Cu608       N611   2.074   1_554  S
Cu609       N619   2.077       .  S
Cu610       N612   2.063       .  S
Cu610       N618   2.063       .  S
N611        N612   1.321   1_556  A
N611        C615   1.345       .  A
N612        C613   1.343   1_554  A
C613        C614   1.381       .  A
C613        H616   1.082       .  S
C614        C615   1.386       .  A
C614       C1009   1.476       .  S
C615        H617   1.082       .  S
N618        N619   1.320       .  A
N618        C622   1.342       .  A
N619        C620   1.346       .  A
C620        C621   1.390       .  A
C620        H623   1.082       .  S
C621        C622   1.386       .  A
C621       C1000   1.487       .  S
C622        H624   1.080       .  S
N625        N626   1.321       .  A
N625        C629   1.343       .  A
N625       Cu633   2.061       .  S
N626        C627   1.342       .  A
N626       Cu632   2.064       .  S
C627        C628   1.383       .  A
C627        H630   1.082       .  S
C628        C629   1.384       .  A
C628       C1309   1.475       .  S
C629        H631   1.082       .  S
Cu632       N635   2.064       .  S
Cu633       N643   2.062       .  S
Cu634       N636   2.079       .  S
Cu634       N642   2.079       .  S
N635        N636   1.321       .  A
N635        C639   1.344       .  A
N636        C637   1.345       .  A
C637        C638   1.387       .  A
C637        H640   1.082       .  S
C638        C639   1.384       .  A
C638        C952   1.481       .  S
C639        H641   1.081       .  S
N642        N643   1.321       .  A
N642        C646   1.346       .  A
N643        C644   1.342       .  A
C644        C645   1.383       .  A
C644        H647   1.081       .  S
C645        C646   1.386       .  A
C645        C961   1.480       .  S
C646        H648   1.082       .  S
N649        N650   1.321       .  A
N649        C653   1.343       .  A
N649       Cu657   2.065       .  S
N650        C651   1.344       .  A
N650       Cu656   2.072       .  S
C651        C652   1.385       .  A
C651        H654   1.082       .  S
C652        C653   1.384       .  A
C652       C1333   1.478       .  S
C653        H655   1.081       .  S
Cu656       N659   2.072       .  S
Cu657       N667   2.065       .  S
Cu658       N660   2.076       .  S
Cu658       N666   2.076       .  S
N659        N660   1.321       .  A
N659        C663   1.344       .  A
N660        C661   1.345       .  A
C661        C662   1.388       .  A
C661        H664   1.081       .  S
C662        C663   1.386       .  A
C662        C988   1.485   1_455  S
C663        H665   1.082       .  S
N666        N667   1.321       .  A
N666        C670   1.344       .  A
N667        C668   1.344       .  A
C668        C669   1.385       .  A
C668        H671   1.081       .  S
C669        C670   1.387       .  A
C669        C964   1.483       .  S
C670        H672   1.082       .  S
N673        N674   1.320       .  A
N673        C677   1.344       .  A
N673       Cu681   2.059       .  S
N674        C675   1.342       .  A
N674       Cu680   2.067       .  S
C675        C676   1.385       .  A
C675        H678   1.082       .  S
C676        C677   1.384       .  A
C676       C1456   1.477       .  S
C677        H679   1.081       .  S
Cu680       N683   2.067       .  S
Cu681       N691   2.060       .  S
Cu682       N684   2.078       .  S
Cu682       N690   2.078       .  S
N683        N684   1.322       .  A
N683        C687   1.342       .  A
N684        C685   1.347       .  A
C685        C686   1.388       .  A
C685        H688   1.081       .  S
C686        C687   1.384       .  A
C686        C925   1.483       .  S
C687        H689   1.082       .  S
N690        N691   1.322       .  A
N690        C694   1.345       .  A
N691        C692   1.341       .  A
C692        C693   1.381       .  A
C692        H695   1.082       .  S
C693        C694   1.386       .  A
C693        C937   1.477       .  S
C694        H696   1.082       .  S
N697        N698   1.321       .  A
N697        C701   1.343       .  A
N697       Cu705   2.066       .  S
N698        C699   1.345       .  A
N698       Cu704   2.073       .  S
C699        C700   1.385       .  A
C699        H702   1.082       .  S
C700        C701   1.384       .  A
C700       C1480   1.478       .  S
C701        H703   1.081       .  S
Cu704       N707   2.073       .  S
Cu705       N715   2.066       .  S
Cu706       N708   2.067       .  S
Cu706       N714   2.067       .  S
N707        N708   1.321       .  A
N707        C711   1.342       .  A
N708        C709   1.345       .  A
C709        C710   1.385       .  A
C709        H712   1.082       .  S
C710        C711   1.386       .  A
C710        C913   1.482       .  S
C711        H713   1.081       .  S
N714        N715   1.321       .  A
N714        C718   1.343       .  A
N715        C716   1.343       .  A
C716        C717   1.386       .  A
C716        H719   1.081       .  S
C717        C718   1.386       .  A
C717        C940   1.482       .  S
C718        H720   1.082       .  S
N721        N722   1.321       .  A
N721        C725   1.345       .  A
N721       Cu729   2.069       .  S
N722        C723   1.344       .  A
N722       Cu728   2.075       .  S
C723        C724   1.386       .  A
C723        H726   1.082       .  S
C724        C725   1.384       .  A
C724       C1213   1.480       .  S
C725        H727   1.082       .  S
Cu728       N731   2.076       .  S
Cu729       N739   2.069       .  S
Cu730       N732   2.074       .  S
Cu730       N738   2.074       .  S
N731        N732   1.321       .  A
N731        C735   1.345       .  A
N732        C733   1.344       .  A
C733        C734   1.387       .  A
C733        H736   1.082       .  S
C734        C735   1.389       .  A
C734        C949   1.488       .  S
C735        H737   1.080       .  S
N738        N739   1.321       .  A
N738        C742   1.345       .  A
N739        C740   1.343       .  A
C740        C741   1.384       .  A
C740        H743   1.082       .  S
C741        C742   1.387       .  A
C741        C904   1.482       .  S
C742        H744   1.081       .  S
N745        N746   1.322       .  A
N745        C749   1.343       .  A
N745       Cu753   2.066       .  S
N746        C747   1.343       .  A
N746       Cu752   2.063       .  S
C747        C748   1.381       .  A
C747        H750   1.082       .  S
C748        C749   1.382       .  A
C748       C1180   1.470       .  S
C749        H751   1.082       .  S
Cu752       N755   2.062       .  S
Cu753       N763   2.065       .  S
Cu754       N756   2.073       .  S
Cu754       N762   2.073       .  S
N755        N756   1.321       .  A
N755        C759   1.345       .  A
N756        C757   1.342       .  A
C757        C758   1.386       .  A
C757        H760   1.082       .  S
C758        C759   1.384       .  A
C758        C916   1.479       .  S
C759        H761   1.082       .  S
N762        N763   1.321       .  A
N762        C766   1.345       .  A
N763        C764   1.343       .  A
C764        C765   1.385       .  A
C764        H767   1.082       .  S
C765        C766   1.387       .  A
C765        C901   1.482       .  S
C766        H768   1.081       .  S
N769        N770   1.322       .  A
N769        C773   1.345   1_545  A
N769       Cu777   2.067       .  S
N770        C771   1.343       .  A
N770       Cu776   2.071       .  S
C771        C772   1.383       .  A
C771        H774   1.082       .  S
C772        C773   1.383   1_545  A
C772       C1249   1.474   1_545  S
C773        H775   1.082       .  S
Cu776       N779   2.071       .  S
Cu777       N787   2.067       .  S
Cu778       N780   2.073       .  S
Cu778       N786   2.073       .  S
N779        N780   1.321       .  A
N779        C783   1.344       .  A
N780        C781   1.345       .  A
C781        C782   1.387       .  A
C781        H784   1.081       .  S
C782        C783   1.386       .  A
C782        C973   1.484       .  S
C783        H785   1.082       .  S
N786        N787   1.322       .  A
N786        C790   1.343       .  A
N787        C788   1.344   1_545  A
C788        C789   1.385   1_565  A
C788        H791   1.081       .  S
C789        C790   1.386       .  A
C789        C892   1.481   1_545  S
C790        H792   1.082       .  S
N793        N794   1.321       .  A
N793        C797   1.342       .  A
N793       Cu801   2.057       .  S
N794        C795   1.341       .  A
N794       Cu800   2.054       .  S
C795        C796   1.380       .  A
C795        H798   1.082       .  S
C796        C797   1.381       .  A
C796       C1225   1.467       .  S
C797        H799   1.082       .  S
Cu800       N803   2.054       .  S
Cu801       N811   2.057       .  S
Cu802       N804   2.066       .  S
Cu802       N810   2.066       .  S
N803        N804   1.321       .  A
N803        C807   1.342       .  A
N804        C805   1.342       .  A
C805        C806   1.384       .  A
C805        H808   1.082       .  S
C806        C807   1.383       .  A
C806        C877   1.475       .  S
C807        H809   1.081       .  S
N810        N811   1.320       .  A
N810        C814   1.343       .  A
N811        C812   1.341       .  A
C812        C813   1.384       .  A
C812        H815   1.081       .  S
C813        C814   1.386       .  A
C813        C889   1.480       .  S
C814        H816   1.082       .  S
N817        N818   1.321       .  A
N817        C821   1.343       .  A
N817       Cu825   2.063       .  S
N818        C819   1.340       .  A
N818       Cu824   2.057       .  S
C819        C820   1.382       .  A
C819        H822   1.082       .  S
C820        C821   1.383       .  A
C820        C880   1.472       .  S
C821        H823   1.082       .  S
Cu824       N827   2.057       .  S
Cu825       N835   2.064       .  S
Cu826       N828   2.067       .  S
Cu826       N834   2.067       .  S
N827        N828   1.320       .  A
N827        C831   1.342   1_556  A
N828        C829   1.343       .  A
C829        C830   1.384   1_556  A
C829        H832   1.081       .  S
C830        C831   1.382       .  A
C830       C1096   1.474       .  S
C831        H833   1.082       .  S
N834        N835   1.321       .  A
N834        C838   1.343       .  A
N835        C836   1.343       .  A
C836        C837   1.384       .  A
C836        H839   1.082       .  S
C837        C838   1.385       .  A
C837        C865   1.479       .  S
C838        H840   1.081       .  S
N841        N842   1.321       .  A
N841        C845   1.342       .  A
N841       Cu849   2.059       .  S
N842        C843   1.345       .  A
N842       Cu848   2.072       .  S
C843        C844   1.386       .  A
C843        H846   1.081       .  S
C844        C845   1.382       .  A
C844       C1132   1.476       .  S
C845        H847   1.082       .  S
Cu848       N851   2.073       .  S
Cu849       N859   2.059       .  S
Cu850       N852   2.074       .  S
Cu850       N858   2.073       .  S
N851        N852   1.322       .  A
N851        C855   1.345       .  A
N852        C853   1.343       .  A
C853        C854   1.386       .  A
C853        H856   1.081       .  S
C854        C855   1.385       .  A
C854        C928   1.482   1_455  S
C855        H857   1.082       .  S
N858        N859   1.319       .  A
N858        C862   1.344       .  A
N859        C860   1.341       .  A
C860        C861   1.386       .  A
C860        H863   1.080       .  S
C861        C862   1.390       .  A
C861        C868   1.485       .  S
C862        H864   1.082       .  S
C865        C866   1.402       .  A
C865        C870   1.408       .  A
C866        C867   1.400       .  A
C866        H871   1.083       .  S
C867        C868   1.413       .  A
C867        O872   1.371       .  S
C868        C869   1.405       .  A
C869        C870   1.399       .  A
C869        H873   1.082       .  S
C870        O874   1.372       .  S
O872        H876   0.992       .  S
O874        H875   0.992       .  S
C877        C878   1.402       .  A
C877        C882   1.411       .  A
C878        C879   1.394       .  A
C878        H883   1.083       .  S
C879        C880   1.408       .  A
C879        O884   1.371       .  S
C880        C881   1.403       .  A
C881        C882   1.397       .  A
C881        H885   1.083       .  S
C882        O886   1.371       .  S
O884        H888   0.992       .  S
O886        H887   0.992       .  S
C889        C890   1.404       .  A
C889        C894   1.410   1_565  A
C890        C891   1.399   1_556  A
C890        H895   1.083       .  S
C891        C892   1.410       .  A
C891        O896   1.371       .  S
C892        C893   1.404   1_564  A
C893        C894   1.398       .  A
C893        H897   1.083       .  S
C894        O898   1.372       .  S
O896        H900   0.992       .  S
O898        H899   0.992       .  S
C901        C902   1.405       .  A
C901        C906   1.409       .  A
C902        C903   1.400       .  A
C902        H907   1.083       .  S
C903        C904   1.408       .  A
C903        O908   1.372       .  S
C904        C905   1.405       .  A
C905        C906   1.401       .  A
C905        H909   1.083       .  S
C906        O910   1.372       .  S
O908        H912   0.992       .  S
O910        H911   0.992       .  S
C913        C914   1.406       .  A
C913        C918   1.410       .  A
C914        C915   1.402       .  A
C914        H919   1.083       .  S
C915        C916   1.409       .  A
C915        O920   1.371       .  S
C916        C917   1.402       .  A
C917        C918   1.397       .  A
C917        H921   1.083       .  S
C918        O922   1.372       .  S
O920        H924   0.992       .  S
O922        H923   0.992       .  S
C925        C926   1.404       .  A
C925        C930   1.409       .  A
C926        C927   1.398       .  A
C926        H931   1.083       .  S
C927        C928   1.410       .  A
C927        O932   1.372       .  S
C928        C929   1.405       .  A
C929        C930   1.403       .  A
C929        H933   1.083       .  S
C930        O934   1.372       .  S
O932        H936   0.992   1_655  S
O934        H935   0.992       .  S
C937        C938   1.402       .  A
C937        C942   1.409       .  A
C938        C939   1.398       .  A
C938        H943   1.083       .  S
C939        C940   1.412       .  A
C939        O944   1.371       .  S
C940        C941   1.404       .  A
C941        C942   1.397       .  A
C941        H945   1.083       .  S
C942        O946   1.371       .  S
O944        H948   0.992       .  S
O946        H947   0.992       .  S
C949        C950   1.407       .  A
C949        C954   1.412       .  A
C950        C951   1.402       .  A
C950        H955   1.083       .  S
C951        C952   1.408       .  A
C951        O956   1.372       .  S
C952        C953   1.402       .  A
C953        C954   1.400       .  A
C953        H957   1.083       .  S
C954        O958   1.371       .  S
O956        H960   0.992       .  S
O958        H959   0.992       .  S
C961        C962   1.403       .  A
C961        C966   1.409       .  A
C962        C963   1.402       .  A
C962        H967   1.083       .  S
C963        C964   1.411       .  A
C963        O968   1.372       .  S
C964        C965   1.404       .  A
C965        C966   1.398       .  A
C965        H969   1.083       .  S
C966        O970   1.372       .  S
O968        H972   0.992       .  S
O970        H971   0.992       .  S
C973        C974   1.404       .  A
C973        C978   1.410       .  A
C974        C975   1.402       .  A
C974        H979   1.083       .  S
C975        C976   1.411       .  A
C975        O980   1.372       .  S
C976        C977   1.405       .  A
C977        C978   1.400       .  A
C977        H981   1.083       .  S
C978        O982   1.371       .  S
O980        H984   0.992       .  S
O982        H983   0.992       .  S
C985        C986   1.406       .  A
C985        C990   1.411       .  A
C986        C987   1.402       .  A
C986        H991   1.083       .  S
C987        C988   1.409       .  A
C987        O992   1.372   1_655  S
C988        C989   1.405       .  A
C989        C990   1.401       .  A
C989        H993   1.083       .  S
C990        O994   1.371       .  S
O992        H996   0.992       .  S
O994        H995   0.992       .  S
C997        C998   1.402       .  A
C997       C1002   1.411       .  A
C998        C999   1.400       .  A
C998       H1003   1.083       .  S
C999       C1000   1.412       .  A
C999       O1004   1.371       .  S
C1000      C1001   1.405       .  A
C1001      C1002   1.402       .  A
C1001      H1005   1.083       .  S
C1002      O1006   1.372       .  S
O1004      H1008   0.992       .  S
O1006      H1007   0.992       .  S
C1009      C1010   1.404       .  A
C1009      C1014   1.407       .  A
C1010      C1011   1.400       .  A
C1010      H1015   1.084       .  S
C1011      C1012   1.408       .  A
C1011      O1016   1.372       .  S
C1012      C1013   1.404       .  A
C1013      C1014   1.399       .  A
C1013      H1017   1.083       .  S
C1014      O1018   1.372       .  S
O1016      H1020   0.992       .  S
O1018      H1019   0.992       .  S
C1021      C1022   1.403       .  A
C1021      C1026   1.409       .  A
C1022      C1023   1.400       .  A
C1022      H1027   1.084       .  S
C1023      C1024   1.410       .  A
C1023      O1028   1.371       .  S
C1024      C1025   1.404       .  A
C1025      C1026   1.400       .  A
C1025      H1029   1.083       .  S
C1026      O1030   1.372       .  S
O1028      H1032   0.992       .  S
O1030      H1031   0.992       .  S
C1033      C1034   1.404       .  A
C1033      C1038   1.411       .  A
C1034      C1035   1.400       .  A
C1034      H1039   1.083       .  S
C1035      C1036   1.409       .  A
C1035      O1040   1.372       .  S
C1036      C1037   1.401       .  A
C1037      C1038   1.397       .  A
C1037      H1041   1.084       .  S
C1038      O1042   1.372       .  S
O1040      H1044   0.992       .  S
O1042      H1043   0.992       .  S
C1045      C1046   1.405       .  A
C1045      C1050   1.412       .  A
C1046      C1047   1.402       .  A
C1046      H1051   1.083       .  S
C1047      C1048   1.411       .  A
C1047      O1052   1.371       .  S
C1048      C1049   1.404       .  A
C1049      C1050   1.401       .  A
C1049      H1053   1.083       .  S
C1050      O1054   1.371       .  S
O1052      H1056   0.992       .  S
O1054      H1055   0.992       .  S
C1057      C1058   1.404       .  A
C1057      C1062   1.411       .  A
C1058      C1059   1.402       .  A
C1058      H1063   1.083       .  S
C1059      C1060   1.410       .  A
C1059      O1064   1.372       .  S
C1060      C1061   1.403       .  A
C1061      C1062   1.399       .  A
C1061      H1065   1.083       .  S
C1062      O1066   1.371       .  S
O1064      H1068   0.992       .  S
O1066      H1067   0.992       .  S
C1069      C1070   1.404       .  A
C1069      C1074   1.410       .  A
C1070      C1071   1.398       .  A
C1070      H1075   1.083       .  S
C1071      C1072   1.408   1_565  A
C1071      O1076   1.372       .  S
C1072      C1073   1.404   1_545  A
C1073      C1074   1.399       .  A
C1073      H1077   1.083   1_565  S
C1074      O1078   1.372       .  S
O1076      H1080   0.992       .  S
O1078      H1079   0.992       .  S
C1081      C1082   1.405       .  A
C1081      C1086   1.412       .  A
C1082      C1083   1.398       .  A
C1082      H1087   1.083       .  S
C1083      C1084   1.408       .  A
C1083      O1088   1.372       .  S
C1084      C1085   1.404       .  A
C1085      C1086   1.402       .  A
C1085      H1089   1.083       .  S
C1086      O1090   1.371       .  S
O1088      H1092   0.992       .  S
O1090      H1091   0.992       .  S
C1093      C1094   1.403       .  A
C1093      C1098   1.409       .  A
C1094      C1095   1.398       .  A
C1094      H1099   1.083       .  S
C1095      C1096   1.407       .  A
C1095      O1100   1.372       .  S
C1096      C1097   1.403       .  A
C1097      C1098   1.397       .  A
C1097      H1101   1.083       .  S
C1098      O1102   1.371       .  S
O1100      H1104   0.992       .  S
O1102      H1103   0.992       .  S
C1105      C1106   1.405       .  A
C1105      C1110   1.410       .  A
C1106      C1107   1.402       .  A
C1106      H1111   1.083       .  S
C1107      C1108   1.411       .  A
C1107      O1112   1.371       .  S
C1108      C1109   1.405       .  A
C1109      C1110   1.396       .  A
C1109      H1113   1.082       .  S
C1110      O1114   1.371       .  S
O1112      H1116   0.992       .  S
O1114      H1115   0.992       .  S
C1117      C1118   1.402       .  A
C1117      C1122   1.409       .  A
C1118      C1119   1.397       .  A
C1118      H1123   1.083       .  S
C1119      C1120   1.409       .  A
C1119      O1124   1.372       .  S
C1120      C1121   1.403       .  A
C1121      C1122   1.400       .  A
C1121      H1125   1.083       .  S
C1122      O1126   1.372       .  S
O1124      H1128   0.992       .  S
O1126      H1127   0.992       .  S
C1129      C1130   1.404       .  A
C1129      C1134   1.406       .  A
C1130      C1131   1.399       .  A
C1130      H1135   1.083       .  S
C1131      C1132   1.408       .  A
C1131      O1136   1.372       .  S
C1132      C1133   1.404       .  A
C1133      C1134   1.398       .  A
C1133      H1137   1.083       .  S
C1134      O1138   1.372       .  S
O1136      H1140   0.992       .  S
O1138      H1139   0.992       .  S
C1141      C1142   1.402   1_545  A
C1141      C1146   1.407   1_545  A
C1142      C1143   1.400       .  A
C1142      H1147   1.084       .  S
C1143      C1144   1.411       .  A
C1143      O1148   1.372       .  S
C1144      C1145   1.405       .  A
C1145      C1146   1.398       .  A
C1145      H1149   1.082       .  S
C1146      O1150   1.372   1_565  S
O1148      H1152   0.992       .  S
O1150      H1151   0.992       .  S
C1153      C1154   1.404       .  A
C1153      C1158   1.410       .  A
C1154      C1155   1.400       .  A
C1154      H1159   1.083       .  S
C1155      C1156   1.411       .  A
C1155      O1160   1.371       .  S
C1156      C1157   1.404       .  A
C1157      C1158   1.398       .  A
C1157      H1161   1.083       .  S
C1158      O1162   1.371       .  S
O1160      H1164   0.992       .  S
O1162      H1163   0.992       .  S
C1165      C1166   1.405       .  A
C1165      C1170   1.413       .  A
C1166      C1167   1.400       .  A
C1166      H1171   1.083       .  S
C1167      C1168   1.409       .  A
C1167      O1172   1.371       .  S
C1168      C1169   1.403       .  A
C1169      C1170   1.400       .  A
C1169      H1173   1.083       .  S
C1170      O1174   1.371       .  S
O1172      H1176   0.992       .  S
O1174      H1175   0.992       .  S
C1177      C1178   1.404       .  A
C1177      C1182   1.408       .  A
C1178      C1179   1.398       .  A
C1178      H1183   1.083       .  S
C1179      C1180   1.408       .  A
C1179      O1184   1.372       .  S
C1180      C1181   1.401       .  A
C1181      C1182   1.398       .  A
C1181      H1185   1.084       .  S
C1182      O1186   1.372       .  S
O1184      H1188   0.992       .  S
O1186      H1187   0.992       .  S
C1189      C1190   1.403       .  A
C1189      C1194   1.407       .  A
C1190      C1191   1.400       .  A
C1190      H1195   1.083       .  S
C1191      C1192   1.412       .  A
C1191      O1196   1.371       .  S
C1192      C1193   1.406       .  A
C1193      C1194   1.400       .  A
C1193      H1197   1.083       .  S
C1194      O1198   1.372       .  S
O1196      H1200   0.992       .  S
O1198      H1199   0.992       .  S
C1201      C1202   1.405   1_554  A
C1201      C1206   1.412       .  A
C1202      C1203   1.398       .  A
C1202      H1207   1.082       .  S
C1203      C1204   1.410       .  A
C1203      O1208   1.371       .  S
C1204      C1205   1.404       .  A
C1205      C1206   1.401   1_556  A
C1205      H1209   1.083       .  S
C1206      O1210   1.371       .  S
O1208      H1212   0.992       .  S
O1210      H1211   0.992       .  S
C1213      C1214   1.404       .  A
C1213      C1218   1.410       .  A
C1214      C1215   1.396       .  A
C1214      H1219   1.083       .  S
C1215      C1216   1.407       .  A
C1215      O1220   1.371       .  S
C1216      C1217   1.404       .  A
C1217      C1218   1.403       .  A
C1217      H1221   1.084       .  S
C1218      O1222   1.372       .  S
O1220      H1224   0.992       .  S
O1222      H1223   0.992       .  S
C1225      C1226   1.400       .  A
C1225      C1230   1.406   1_565  A
C1226      C1227   1.396       .  A
C1226      H1231   1.084       .  S
C1227      C1228   1.410       .  A
C1227      O1232   1.371       .  S
C1228      C1229   1.404   1_565  A
C1229      C1230   1.397       .  A
C1229      H1233   1.083       .  S
C1230      O1234   1.372       .  S
O1232      H1236   0.992       .  S
O1234      H1235   0.991       .  S
C1237      C1238   1.408       .  A
C1237      C1242   1.410       .  A
C1238      C1239   1.403   1_565  A
C1238      H1243   1.083   1_565  S
C1239      C1240   1.409   1_545  A
C1239      O1244   1.371       .  S
C1240      C1241   1.406       .  A
C1241      C1242   1.401       .  A
C1241      H1245   1.083       .  S
C1242      O1246   1.371       .  S
O1244      H1248   0.992       .  S
O1246      H1247   0.992       .  S
C1249      C1250   1.404       .  A
C1249      C1254   1.406   1_565  A
C1250      C1251   1.402       .  A
C1250      H1255   1.084       .  S
C1251      C1252   1.409       .  A
C1251      O1256   1.372       .  S
C1252      C1253   1.405       .  A
C1253      C1254   1.398   1_565  A
C1253      H1257   1.083   1_565  S
C1254      O1258   1.372       .  S
O1256      H1260   0.992       .  S
O1258      H1259   0.992       .  S
C1261      C1262   1.405       .  A
C1261      C1266   1.408       .  A
C1262      C1263   1.404       .  A
C1262      H1267   1.083       .  S
C1263      C1264   1.409       .  A
C1263      O1268   1.372       .  S
C1264      C1265   1.403       .  A
C1265      C1266   1.396       .  A
C1265      H1269   1.083       .  S
C1266      O1270   1.372       .  S
O1268      H1272   0.992       .  S
O1270      H1271   0.992       .  S
C1273      C1274   1.402       .  A
C1273      C1278   1.408       .  A
C1274      C1275   1.396       .  A
C1274      H1279   1.083       .  S
C1275      C1276   1.408       .  A
C1275      O1280   1.372       .  S
C1276      C1277   1.405       .  A
C1277      C1278   1.402       .  A
C1277      H1281   1.083       .  S
C1278      O1282   1.372       .  S
O1280      H1284   0.992       .  S
O1282      H1283   0.992       .  S
C1285      C1286   1.403       .  A
C1285      C1290   1.412       .  A
C1286      C1287   1.400       .  A
C1286      H1291   1.083       .  S
C1287      C1288   1.412       .  A
C1287      O1292   1.372       .  S
C1288      C1289   1.404       .  A
C1289      C1290   1.404       .  A
C1289      H1293   1.083       .  S
C1290      O1294   1.372       .  S
O1292      H1296   0.992       .  S
O1294      H1295   0.992       .  S
C1297      C1298   1.405       .  A
C1297      C1302   1.411       .  A
C1298      C1299   1.401       .  A
C1298      H1303   1.083       .  S
C1299      C1300   1.411       .  A
C1299      O1304   1.371       .  S
C1300      C1301   1.406       .  A
C1301      C1302   1.402       .  A
C1301      H1305   1.083       .  S
C1302      O1306   1.371       .  S
O1304      H1308   0.992       .  S
O1306      H1307   0.992       .  S
C1309      C1310   1.403       .  A
C1309      C1314   1.410       .  A
C1310      C1311   1.397       .  A
C1310      H1315   1.083       .  S
C1311      C1312   1.408       .  A
C1311      O1316   1.372       .  S
C1312      C1313   1.402       .  A
C1313      C1314   1.398       .  A
C1313      H1317   1.084       .  S
C1314      O1318   1.371       .  S
O1316      H1320   0.992       .  S
O1318      H1319   0.992       .  S
C1321      C1322   1.406       .  A
C1321      C1326   1.411       .  A
C1322      C1323   1.399       .  A
C1322      H1327   1.083       .  S
C1323      C1324   1.409       .  A
C1323      O1328   1.371       .  S
C1324      C1325   1.405       .  A
C1325      C1326   1.402       .  A
C1325      H1329   1.083       .  S
C1326      O1330   1.371       .  S
O1328      H1332   0.992       .  S
O1330      H1331   0.992       .  S
C1333      C1334   1.403       .  A
C1333      C1338   1.409       .  A
C1334      C1335   1.401       .  A
C1334      H1339   1.084       .  S
C1335      C1336   1.410       .  A
C1335      O1340   1.371       .  S
C1336      C1337   1.404       .  A
C1337      C1338   1.399       .  A
C1337      H1341   1.083       .  S
C1338      O1342   1.372       .  S
O1340      H1344   0.992       .  S
O1342      H1343   0.992       .  S
C1345      C1346   1.404       .  A
C1345      C1350   1.412       .  A
C1346      C1347   1.400       .  A
C1346      H1351   1.083       .  S
C1347      C1348   1.411       .  A
C1347      O1352   1.371       .  S
C1348      C1349   1.403       .  A
C1349      C1350   1.400       .  A
C1349      H1353   1.083       .  S
C1350      O1354   1.371       .  S
O1352      H1356   0.992       .  S
O1354      H1355   0.992       .  S
C1357      C1358   1.403       .  A
C1357      C1362   1.412       .  A
C1358      C1359   1.402       .  A
C1358      H1363   1.083       .  S
C1359      C1360   1.410       .  A
C1359      O1364   1.372       .  S
C1360      C1361   1.402       .  A
C1361      C1362   1.403       .  A
C1361      H1365   1.083       .  S
C1362      O1366   1.372       .  S
O1364      H1368   0.992       .  S
O1366      H1367   0.992       .  S
C1369      C1370   1.403       .  A
C1369      C1374   1.407       .  A
C1370      C1371   1.402       .  A
C1370      H1375   1.084       .  S
C1371      C1372   1.411       .  A
C1371      O1376   1.371       .  S
C1372      C1373   1.405       .  A
C1373      C1374   1.398       .  A
C1373      H1377   1.083       .  S
C1374      O1378   1.372       .  S
O1376      H1380   0.992       .  S
O1378      H1379   0.991       .  S
C1381      C1382   1.404       .  A
C1381      C1386   1.410   1_554  A
C1382      C1383   1.400   1_554  A
C1382      H1387   1.083       .  S
C1383      C1384   1.409       .  A
C1383      O1388   1.371       .  S
C1384      C1385   1.406       .  A
C1385      C1386   1.400       .  A
C1385      H1389   1.083       .  S
C1386      O1390   1.372       .  S
O1388      H1392   0.992   1_556  S
O1390      H1391   0.992       .  S
C1393      C1394   1.405       .  A
C1393      C1398   1.409       .  A
C1394      C1395   1.403       .  A
C1394      H1399   1.083       .  S
C1395      C1396   1.410       .  A
C1395      O1400   1.371       .  S
C1396      C1397   1.404       .  A
C1397      C1398   1.398       .  A
C1397      H1401   1.083       .  S
C1398      O1402   1.372       .  S
O1400      H1404   0.992       .  S
O1402      H1403   0.992       .  S
C1405      C1406   1.403       .  A
C1405      C1410   1.409       .  A
C1406      C1407   1.400       .  A
C1406      H1411   1.084       .  S
C1407      C1408   1.408       .  A
C1407      O1412   1.371       .  S
C1408      C1409   1.402       .  A
C1409      C1410   1.399       .  A
C1409      H1413   1.084       .  S
C1410      O1414   1.372       .  S
O1412      H1416   0.992       .  S
O1414      H1415   0.992       .  S
C1417      C1418   1.406       .  A
C1417      C1422   1.411       .  A
C1418      C1419   1.401       .  A
C1418      H1423   1.083       .  S
C1419      C1420   1.412       .  A
C1419      O1424   1.371       .  S
C1420      C1421   1.406       .  A
C1421      C1422   1.401       .  A
C1421      H1425   1.083       .  S
C1422      O1426   1.371       .  S
O1424      H1428   0.992       .  S
O1426      H1427   0.992       .  S
C1429      C1430   1.402       .  A
C1429      C1434   1.407       .  A
C1430      C1431   1.398       .  A
C1430      H1435   1.084       .  S
C1431      C1432   1.409       .  A
C1431      O1436   1.372       .  S
C1432      C1433   1.405       .  A
C1433      C1434   1.399       .  A
C1433      H1437   1.083       .  S
C1434      O1438   1.372       .  S
O1436      H1440   0.992       .  S
O1438      H1439   0.992       .  S
C1441      C1442   1.406       .  A
C1441      C1446   1.408       .  A
C1442      C1443   1.401       .  A
C1442      H1447   1.083       .  S
C1443      C1444   1.409       .  A
C1443      O1448   1.371       .  S
C1444      C1445   1.405       .  A
C1445      C1446   1.399       .  A
C1445      H1449   1.083       .  S
C1446      O1450   1.371       .  S
O1448      H1452   0.992       .  S
O1450      H1451   0.992       .  S
C1453      C1454   1.404       .  A
C1453      C1458   1.408       .  A
C1454      C1455   1.402       .  A
C1454      H1459   1.084       .  S
C1455      C1456   1.410       .  A
C1455      O1460   1.372       .  S
C1456      C1457   1.402       .  A
C1457      C1458   1.396       .  A
C1457      H1461   1.083       .  S
C1458      O1462   1.372       .  S
O1460      H1464   0.992       .  S
O1462      H1463   0.992       .  S
C1465      C1466   1.404       .  A
C1465      C1470   1.412       .  A
C1466      C1467   1.401       .  A
C1466      H1471   1.083       .  S
C1467      C1468   1.414       .  A
C1467      O1472   1.371       .  S
C1468      C1469   1.403       .  A
C1469      C1470   1.399       .  A
C1469      H1473   1.083       .  S
C1470      O1474   1.371       .  S
O1472      H1476   0.992       .  S
O1474      H1475   0.992       .  S
C1477      C1478   1.401       .  A
C1477      C1482   1.407       .  A
C1478      C1479   1.399       .  A
C1478      H1483   1.084       .  S
C1479      C1480   1.410       .  A
C1479      O1484   1.372       .  S
C1480      C1481   1.404       .  A
C1481      C1482   1.401       .  A
C1481      H1485   1.084       .  S
C1482      O1486   1.372       .  S
O1484      H1488   0.992       .  S
O1486      H1487   0.991       .  S
C1489      C1490   1.407       .  A
C1489      C1494   1.410       .  A
C1490      C1491   1.399       .  A
C1490      H1495   1.082       .  S
C1491      C1492   1.409       .  A
C1491      O1496   1.371       .  S
C1492      C1493   1.406       .  A
C1493      C1494   1.401       .  A
C1493      H1497   1.083       .  S
C1494      O1498   1.371       .  S
O1496      H1500   0.992       .  S
O1498      H1499   0.992       .  S
C1501      C1502   1.403       .  A
C1501      C1506   1.412       .  A
C1502      C1503   1.402       .  A
C1502      H1507   1.083       .  S
C1503      C1504   1.413       .  A
C1503      O1508   1.372       .  S
C1504      C1505   1.404       .  A
C1505      C1506   1.402       .  A
C1505      H1509   1.083       .  S
C1506      O1510   1.372       .  S
O1508      H1512   0.992       .  S
O1510      H1511   0.992       .  S
