geometry optimzed in LAMMPS
_audit_creation_date              2020-11-30 
_audit_creation_method            'lammps2cif' 
_symmetry_space_group_name_H-M    'P1' 
_symmetry_Int_Tables_number       1 
_symmetry_cell_setting            triclinic 
loop_ 
_symmetry_equiv_pos_as_xyz 
  x,y,z 
_cell_length_a                    42.25057249 
_cell_length_b                    42.21774732847512 
_cell_length_c                    42.292111355217685 
_cell_angle_alpha                 89.8109039422963 
_cell_angle_beta                  90.45335328987017 
_cell_angle_gamma                 89.80286908406623 
loop_ 
_atom_site_label 
_atom_site_type_symbol 
_atom_site_fract_x 
_atom_site_fract_y 
_atom_site_fract_z 
_atom_site_charge 
Zn1        Zn  0.73482322  0.76713092  0.77710186     1.49700
Zn2        Zn  0.73340456  0.71491066  0.72136097     1.49400
Zn3        Zn  0.78782139  0.76873699  0.72295349     1.49100
Zn4        Zn  0.78861683  0.71312103  0.77583432     1.49500
O5          O  0.76118676  0.74085249  0.74918429    -1.83100
O6          O  0.68828155  0.75856002  0.76947671    -0.73700
O7          O  0.73947840  0.72681513  0.67455592    -0.73500
O8          O  0.77934269  0.81548721  0.73182799    -0.73000
O9          O  0.68643775  0.72190059  0.73184938    -0.73700
O10         O  0.74357920  0.81407351  0.77008757    -0.73300
O11         O  0.77857243  0.76210878  0.67590074    -0.73900
O12         O  0.83592424  0.72219474  0.76917083    -0.73300
O13         O  0.74327477  0.66757781  0.72803440    -0.74100
O14         O  0.83459498  0.76083522  0.73320596    -0.73400
O15         O  0.77985719  0.66666868  0.76562206    -0.73900
O16         O  0.77928661  0.71969765  0.82293371    -0.73800
O17         O  0.74229227  0.75672950  0.82355253    -0.73600
C18         C  0.67260911  0.73998799  0.75159828     0.78200
C19         C  0.75838291  0.74566978  0.66051991     0.78700
C20         C  0.76153071  0.82959553  0.75151563     0.77600
C21         C  0.85005613  0.74237162  0.75176031     0.78000
C22         C  0.76163625  0.65188405  0.74652540     0.79100
C23         C  0.76026177  0.73732762  0.83834330     0.78200
Zn24       Zn  0.23618032  0.71797840  0.71785063     1.49700
Zn25       Zn  0.28961511  0.77150951  0.72281618     1.49400
Zn26       Zn  0.23296209  0.76932407  0.77430676     1.49100
Zn27       Zn  0.28672996  0.71593191  0.77588589     1.49500
O28         O  0.26137306  0.74375511  0.74766226    -1.83100
O29         O  0.24440880  0.73038616  0.67122501    -0.73700
O30         O  0.28194732  0.81821478  0.73392276    -0.73500
O31         O  0.18639522  0.76095764  0.76369222    -0.73000
O32         O  0.28136983  0.76687462  0.67530310    -0.73700
O33         O  0.18894227  0.72437267  0.72642091    -0.73300
O34         O  0.24159507  0.81615610  0.76729958    -0.73900
O35         O  0.27808238  0.72415847  0.82320947    -0.73300
O36         O  0.33610676  0.75988335  0.73132981    -0.74100
O37         O  0.23988055  0.75975125  0.82145957    -0.73400
O38         O  0.33372231  0.72134065  0.76674752    -0.73900
O39         O  0.27617743  0.66980832  0.76751787    -0.73800
O40         O  0.24579265  0.67095416  0.72456167    -0.73600
C41         C  0.26298798  0.75021827  0.65804851     0.78200
C42         C  0.26175046  0.83206054  0.75153792     0.78700
C43         C  0.17258843  0.74226163  0.74437871     0.77600
C44         C  0.25824958  0.74177527  0.83763185     0.78000
C45         C  0.35000798  0.73929229  0.74883834     0.79100
C46         C  0.26056626  0.65537968  0.74605547     0.78200
C47         C  0.77541304  0.77196822  0.47210282     0.81300
N48         N  0.79766558  0.79503587  0.47357411    -0.77000
C49         C  0.80647631  0.80767105  0.50165809     0.83700
N50         N  0.79346003  0.79657596  0.52865603    -0.77000
C51         C  0.77110968  0.77357921  0.52791857     0.83800
N52         N  0.76228274  0.76074569  0.49947233    -0.78700
C53         C  0.98189773  0.76747189  0.73040591     0.81300
N54         N  0.01060307  0.75525316  0.73995610    -0.77000
C55         C  0.03779660  0.76551800  0.72565877     0.83700
N56         N  0.03581892  0.78748372  0.70224336    -0.77000
C57         C  0.00758351  0.79949662  0.69291815     0.83800
N58         N  0.98079314  0.78919109  0.70668967    -0.78700
C59         C  0.98622345  0.75563035  0.26640533     0.81300
N60         N  0.98597695  0.77560180  0.29144844    -0.77000
C61         C  0.01317325  0.78391962  0.30616300     0.83700
N62         N  0.04112302  0.77222466  0.29582787    -0.77000
C63         C  0.04202339  0.75221676  0.27072202     0.83800
N64         N  0.01441334  0.74378728  0.25582603    -0.78700
N65         N  0.97152703  0.87615191  0.46272922    -0.35600
N66         N  0.97454988  0.87885643  0.53151826    -0.56100
N67         N  0.04427481  0.87974361  0.53077510    -0.35600
N68         N  0.04141184  0.87423793  0.46217976    -0.56100
C69         C  0.94105592  0.86939349  0.46995311     0.28000
C70         C  0.97671367  0.86478393  0.43327602     0.28000
C71         C  0.03931676  0.87296521  0.56165874     0.28000
C72         C  0.07506743  0.87316719  0.52485477     0.28000
C73         C  0.94281825  0.88099858  0.52787026     0.36600
C74         C  0.98044315  0.88005681  0.56291045     0.36600
C75         C  0.03555080  0.87195020  0.43083061     0.36600
C76         C  0.07321815  0.87572855  0.46566044     0.36600
C77         C  0.92637777  0.85542832  0.44407456    -0.20800
C78         C  0.94878261  0.85253568  0.42104672    -0.20800
C79         C  0.06764269  0.86405226  0.57591362    -0.20800
C80         C  0.09021075  0.86452299  0.55285913    -0.20800
C81         C  0.92854181  0.88418705  0.55709725    -0.21900
C82         C  0.95235571  0.88332440  0.57929359    -0.21900
C83         C  0.06374515  0.87244353  0.41430658    -0.21900
C84         C  0.08753836  0.87483764  0.43630043    -0.21900
C85         C  0.92632167  0.87334908  0.49973927    -0.17300
C86         C  0.00612672  0.86332980  0.41738141    -0.17300
C87         C  0.08965448  0.87207609  0.49471429    -0.17200
C88         C  0.00979214  0.87251066  0.57725373    -0.17200
H89         H  0.90224746  0.84706671  0.44225078     0.15700
H90         H  0.94508502  0.84167582  0.39817164     0.15700
H91         H  0.07154424  0.85709565  0.60029503     0.15700
H92         H  0.11477314  0.85785444  0.55617878     0.15700
H93         H  0.90344064  0.88489074  0.56199790     0.13900
H94         H  0.94926598  0.88351282  0.60467335     0.13900
H95         H  0.06699976  0.86960174  0.38912530     0.13900
H96         H  0.11258595  0.87415078  0.43124153     0.13900
H97         H  0.98801593  0.88708937  0.47727562     0.27200
H98         H  0.02737420  0.88715335  0.51451087     0.27200
C99         C  0.24739072  0.77741452  0.52298984     0.81300
N100        N  0.25586386  0.76191106  0.49589660    -0.77000
C101        C  0.24266220  0.77071442  0.46747958     0.83700
N102        N  0.22064834  0.79426567  0.46680301    -0.77000
C103        C  0.21197297  0.80944321  0.49352057     0.83800
N104        N  0.22517176  0.80067987  0.52149323    -0.78700
Zn105      Zn  0.23717595  0.75467306  0.27431746     1.49700
Zn106      Zn  0.29015551  0.75103799  0.22049322     1.49400
Zn107      Zn  0.29214426  0.70107455  0.27916955     1.49100
Zn108      Zn  0.23584264  0.69766677  0.22476983     1.49500
O109        O  0.26401086  0.72574257  0.24970018    -1.83100
O110        O  0.24455380  0.80082711  0.26364817    -0.73700
O111        O  0.33703815  0.74135726  0.22705540    -0.73500
O112        O  0.28398880  0.71312231  0.32603542    -0.73000
O113        O  0.28140926  0.79805263  0.22655042    -0.73700
O114        O  0.24501632  0.74830776  0.32080701    -0.73300
O115        O  0.33951323  0.70816921  0.26812234    -0.73900
O116        O  0.24491191  0.65152461  0.23678844    -0.73300
O117        O  0.27912575  0.74288954  0.17423693    -0.74100
O118        O  0.28193381  0.65353762  0.27475051    -0.73400
O119        O  0.24195210  0.70587969  0.17714815    -0.73900
O120        O  0.18850503  0.70627112  0.23337397    -0.73800
O121        O  0.19056884  0.74722688  0.26611046    -0.73600
C122        C  0.26246370  0.81414326  0.24358200     0.78200
C123        C  0.35306263  0.72432698  0.24643880     0.78700
C124        C  0.26351640  0.73176776  0.33820663     0.77600
C125        C  0.26290432  0.63786443  0.25713999     0.78000
C126        C  0.25893797  0.72489654  0.16090631     0.79100
C127        C  0.17472431  0.72746215  0.24981711     0.78200
Zn128      Zn  0.78955304  0.76556108  0.22000219     1.49700
Zn129      Zn  0.79261170  0.71349175  0.27672746     1.49400
Zn130      Zn  0.73732827  0.76702969  0.27484132     1.49100
Zn131      Zn  0.73635428  0.71120364  0.22381604     1.49500
O132        O  0.76413093  0.73910751  0.24894849    -1.83100
O133        O  0.83621582  0.75615352  0.22521967    -0.73700
O134        O  0.78371358  0.72336871  0.32401259    -0.73500
O135        O  0.74630592  0.81366967  0.26577290    -0.73000
O136        O  0.83944413  0.72314091  0.26606872    -0.73700
O137        O  0.78344616  0.81263640  0.22935063    -0.73300
O138        O  0.74588991  0.75951074  0.32144982    -0.73900
O139        O  0.68952490  0.71986351  0.23210167    -0.73300
O140        O  0.78514550  0.66576926  0.26925717    -0.74100
O141        O  0.69030907  0.75921602  0.26657836    -0.73400
O142        O  0.74617869  0.66487603  0.23339662    -0.73900
O143        O  0.74240198  0.71904336  0.17676108    -0.73800
O144        O  0.77803372  0.75761956  0.17372493    -0.73600
C145        C  0.85278418  0.73991039  0.24469516     0.78200
C146        C  0.76434739  0.74201434  0.33794080     0.78700
C147        C  0.76538720  0.82830173  0.24765610     0.77600
C148        C  0.67489531  0.74001403  0.24907100     0.78000
C149        C  0.76592566  0.65055551  0.25146736     0.79100
C150        C  0.75902670  0.73822510  0.16056257     0.78200
C151        C  0.73457483  0.71849685  0.97212426     0.81300
N152        N  0.71128184  0.69650276  0.97273568    -0.77000
C153        C  0.69816372  0.68744961  0.00033365     0.83700
N154        N  0.70895658  0.69980568  0.02778111    -0.77000
C155        C  0.73224513  0.72182959  0.02792410     0.83800
N156        N  0.74544357  0.73122241  0.99992673    -0.78700
C157        C  0.74245069  0.46326474  0.77892204     0.81300
N158        N  0.71803306  0.46605869  0.79934878    -0.77000
C159        C  0.70435108  0.49445153  0.80485670     0.83700
N160        N  0.71543756  0.52063030  0.79030242    -0.77000
C161        C  0.73967141  0.51861545  0.76959625     0.83800
N162        N  0.75359018  0.48981246  0.76394183    -0.78700
C163        C  0.73737747  0.25229371  0.97576677     0.81300
N164        N  0.71688003  0.27686784  0.97270192    -0.77000
C165        C  0.70550035  0.29166531  0.99848196     0.83700
N166        N  0.71506294  0.28234245  0.02758689    -0.77000
C167        C  0.73577781  0.25799614  0.03132398     0.83800
N168        N  0.74724462  0.24277925  0.00523269    -0.78700
N169        N  0.62298923  0.45660677  0.96129217    -0.35600
N170        N  0.63276121  0.45505697  0.03015654    -0.56100
N171        N  0.62948015  0.52391980  0.03097203    -0.35600
N172        N  0.61793962  0.52657357  0.96288824    -0.56100
C173        C  0.63047015  0.42557634  0.96523293     0.28000
C174        C  0.62573915  0.46318876  0.93005592     0.28000
C175        C  0.63332778  0.51832391  0.06221248     0.28000
C176        C  0.62444152  0.55529948  0.02732794     0.28000
C177        C  0.63643785  0.42383978  0.02457119     0.36600
C178        C  0.64032813  0.45956978  0.06089503     0.36600
C179        C  0.61973983  0.52273759  0.93127001     0.36600
C180        C  0.62060698  0.55801478  0.96833085     0.36600
C181        C  0.63536789  0.41185079  0.93591309    -0.20800
C182        C  0.63277850  0.43551550  0.91388311    -0.20800
C183        C  0.63021991  0.54645480  0.07873596    -0.20800
C184        C  0.62449614  0.56980069  0.05669694    -0.20800
C185        C  0.64522960  0.40833518  0.05233077    -0.21900
C186        C  0.64781927  0.43098058  0.07523744    -0.21900
C187        C  0.62179918  0.55207614  0.91652493    -0.21900
C188        C  0.62260269  0.57434084  0.93996911    -0.21900
C189        C  0.63670488  0.40965868  0.99429236    -0.17300
C190        C  0.62606032  0.49368909  0.91578542    -0.17300
C191        C  0.62540954  0.57195032  0.99835111    -0.17200
C192        C  0.64273592  0.48924508  0.07594207    -0.17200
H193        H  0.64206642  0.38760940  0.93095979     0.15700
H194        H  0.63707925  0.43274725  0.88886487     0.15700
H195        H  0.63291078  0.54998686  0.10394457     0.15700
H196        H  0.62227081  0.59487388  0.06151882     0.15700
H197        H  0.65075529  0.38348704  0.05554717     0.13900
H198        H  0.65521555  0.42695440  0.09948594     0.13900
H199        H  0.62468848  0.55678417  0.89153673     0.13900
H200        H  0.62588178  0.59952128  0.93653289     0.13900
H201        H  0.61834941  0.47270236  0.97897656     0.27200
H202        H  0.63365554  0.50794624  0.01306559     0.27200
C203        C  0.74674805  0.51780003  0.23005016     0.81300
N204        N  0.72766293  0.51849355  0.20408306    -0.77000
C205        C  0.71457907  0.49156676  0.19278681     0.83700
N206        N  0.72101670  0.46360247  0.20708370    -0.77000
C207        C  0.74022011  0.46211253  0.23290624     0.83800
N208        N  0.75321458  0.48942504  0.24466185    -0.78700
Zn209      Zn  0.73359429  0.21245047  0.22795019     1.49700
Zn210      Zn  0.78844845  0.21246980  0.28218698     1.49400
Zn211      Zn  0.78681495  0.26658279  0.22830749     1.49100
Zn212      Zn  0.73273832  0.26489613  0.28228277     1.49500
O213        O  0.76046103  0.23907162  0.25519342    -1.83100
O214        O  0.74381691  0.16598822  0.23560819    -0.73700
O215        O  0.83514660  0.22022902  0.27206181    -0.73500
O216        O  0.77699625  0.25902957  0.18176050    -0.73000
O217        O  0.78011742  0.16560330  0.27419026    -0.73700
O218        O  0.73992320  0.22222944  0.18131998    -0.73300
O219        O  0.83382607  0.25683894  0.23472650    -0.73900
O220        O  0.74108144  0.31160570  0.27458105    -0.73300
O221        O  0.78091370  0.22148047  0.32914338    -0.74100
O222        O  0.77769856  0.31361968  0.23728477    -0.73400
O223        O  0.74084608  0.25551503  0.32855508    -0.73900
O224        O  0.68569390  0.25732597  0.27352452    -0.73800
O225        O  0.68685745  0.22056441  0.23604883    -0.73600
C226        C  0.76228482  0.15112469  0.25456321     0.78200
C227        C  0.84965536  0.23797382  0.25246472     0.78700
C228        C  0.75780865  0.24136953  0.16652638     0.77600
C229        C  0.75858912  0.32758420  0.25599980     0.78000
C230        C  0.76085190  0.23861642  0.34381155     0.79100
C231        C  0.67149666  0.23907302  0.25415776     0.78200
Zn232      Zn  0.79297671  0.21576115  0.72814533     1.49700
Zn233      Zn  0.73707928  0.21065993  0.77985461     1.49400
Zn234      Zn  0.78970886  0.26413520  0.78682156     1.49100
Zn235      Zn  0.73741912  0.26933788  0.73097121     1.49500
O236        O  0.76435079  0.23994361  0.75616028    -1.83100
O237        O  0.78618850  0.16765359  0.73409918    -0.73700
O238        O  0.74473602  0.21295896  0.82726928    -0.73500
O239        O  0.83666137  0.25733800  0.78002339    -0.73000
O240        O  0.74558824  0.16556530  0.76736613    -0.73700
O241        O  0.83995020  0.22710123  0.73745642    -0.73300
O242        O  0.77948386  0.25153199  0.83206159    -0.73900
O243        O  0.74750110  0.31558998  0.74194876    -0.73300
O244        O  0.69064691  0.22055466  0.77236485    -0.74100
O245        O  0.78180851  0.31149357  0.78175795    -0.73400
O246        O  0.69049526  0.26234902  0.74012698    -0.73900
O247        O  0.74371082  0.26186532  0.68364647    -0.73800
O248        O  0.78239127  0.22630497  0.68181155    -0.73600
C249        C  0.76594696  0.15192135  0.75001247     0.78200
C250        C  0.76180076  0.23067025  0.84469557     0.78700
C251        C  0.85333276  0.24352167  0.75916856     0.77600
C252        C  0.76497329  0.32847901  0.76307405     0.78000
C253        C  0.67588944  0.24187325  0.75671069     0.79100
C254        C  0.76228084  0.24424862  0.66769293     0.78200
C255        C  0.74221708  0.96339790  0.76725735     0.81300
N256        N  0.71510936  0.96417482  0.78411294    -0.77000
C257        C  0.70141583  0.99199270  0.79182140     0.83700
N258        N  0.71475822  0.01951567  0.78249417    -0.77000
C259        C  0.74181219  0.01937414  0.76539881     0.83800
N260        N  0.75582352  0.99116350  0.75767321    -0.78700
C261        C  0.48300032  0.75706193  0.76739888     0.81300
N262        N  0.51208389  0.74550428  0.75923874    -0.77000
C263        C  0.53877826  0.75925146  0.77145550     0.83700
N264        N  0.53606311  0.78428367  0.79136763    -0.77000
C265        C  0.50725472  0.79556778  0.79953889     0.83800
N266        N  0.48088357  0.78204772  0.78739911    -0.78700
C267        C  0.28010235  0.02281235  0.76023680     0.81300
N268        N  0.26805538  0.99352810  0.75323769    -0.77000
C269        C  0.27942646  0.96742303  0.76911497     0.83700
N270        N  0.30212153  0.97112694  0.79164432    -0.77000
C271        C  0.31337079  0.00009778  0.79885960     0.83800
N272        N  0.30268696  0.02570545  0.78291112    -0.78700
N273        N  0.46871534  0.95969405  0.88204733    -0.35600
N274        N  0.47108583  0.02978889  0.87980788    -0.56100
N275        N  0.53852866  0.02962034  0.87010207    -0.35600
N276        N  0.53629489  0.96014939  0.86940297    -0.56100
C277        C  0.43786269  0.96679895  0.87697276     0.28000
C278        C  0.47295661  0.92944434  0.87220380     0.28000
C279        C  0.53111418  0.05965513  0.86136364     0.28000
C280        C  0.56625587  0.02240379  0.85607477     0.28000
C281        C  0.44022466  0.02523482  0.88621738     0.36600
C282        C  0.47611831  0.06133190  0.88138663     0.36600
C283        C  0.53179290  0.92864062  0.87271657     0.36600
C284        C  0.56787175  0.96448821  0.86748367     0.36600
C285        C  0.42204542  0.94014468  0.86606821    -0.20800
C286        C  0.44416631  0.91662641  0.86306147    -0.20800
C287        C  0.55487797  0.07183282  0.84246386    -0.20800
C288        C  0.57704142  0.04839177  0.83919047    -0.20800
C289        C  0.42557620  0.05403374  0.89207585    -0.21900
C290        C  0.44841950  0.07690764  0.88937209    -0.21900
C291        C  0.56061905  0.91292554  0.87310976    -0.21900
C292        C  0.58351930  0.93566896  0.86998759    -0.21900
C293        C  0.42381788  0.99723696  0.87874982    -0.17300
C294        C  0.50226696  0.91356264  0.86907122    -0.17300
C295        C  0.58220315  0.99299930  0.85771511    -0.17200
C296        C  0.50327252  0.07637662  0.86935674    -0.17200
H297        H  0.39728848  0.93821068  0.85959522     0.15700
H298        H  0.43971371  0.89315404  0.85385905     0.15700
H299        H  0.55593313  0.09500756  0.83151895     0.15700
H300        H  0.59837686  0.05015619  0.82530752     0.15700
H301        H  0.40060727  0.05822901  0.89584909     0.13900
H302        H  0.44457844  0.10223099  0.89069403     0.13900
H303        H  0.56456815  0.88758776  0.87395063     0.13900
H304        H  0.60868294  0.93134908  0.86789555     0.13900
H305        H  0.48599901  0.97507500  0.89032066     0.27200
H306        H  0.52576766  0.01496412  0.88509334     0.27200
C307        C  0.48626845  0.23584923  0.77248926     0.81300
N308        N  0.51584876  0.24454118  0.76315869    -0.77000
C309        C  0.54167067  0.23046080  0.77700795     0.83700
N310        N  0.53763424  0.20723294  0.79897840    -0.77000
C311        C  0.50815567  0.19850882  0.80791133     0.83800
N312        N  0.48281107  0.21317385  0.79479922    -0.78700
Zn313      Zn  0.29405321  0.21821873  0.71807475     1.49700
Zn314      Zn  0.29161541  0.26904126  0.77473400     1.49400
Zn315      Zn  0.24013705  0.27399963  0.71867681     1.49100
Zn316      Zn  0.23743535  0.21699572  0.76860578     1.49500
O317        O  0.26577783  0.24459651  0.74470508    -1.83100
O318        O  0.34096336  0.22877902  0.72664451    -0.73700
O319        O  0.28352902  0.31603383  0.77047173    -0.73500
O320        O  0.25096686  0.26793676  0.67180032    -0.73000
O321        O  0.33767958  0.26320954  0.76553184    -0.73700
O322        O  0.28573779  0.22804438  0.67167018    -0.73300
O323        O  0.24879445  0.31994482  0.73142697    -0.73900
O324        O  0.19099412  0.22872873  0.76221771    -0.73300
O325        O  0.28321670  0.25675552  0.82059653    -0.74100
O326        O  0.19248801  0.26667940  0.72564521    -0.73400
O327        O  0.24666618  0.21956714  0.81579070    -0.73900
O328        O  0.24345169  0.17166139  0.75524863    -0.73800
O329        O  0.28577306  0.17047606  0.72492942    -0.73600
C330        C  0.35440554  0.24762519  0.74611862     0.78200
C331        C  0.26619188  0.33305698  0.75242897     0.78700
C332        C  0.26887950  0.24857465  0.65702901     0.77600
C333        C  0.17696835  0.24863666  0.74420161     0.78000
C334        C  0.26447231  0.23676699  0.83309824     0.79100
C335        C  0.26371253  0.15596104  0.73954682     0.78200
C336        C  0.22920045  0.72019552  0.02729728     0.81300
N337        N  0.24185030  0.73182870  0.99982037    -0.77000
C338        C  0.23218275  0.71951605  0.97130821     0.83700
N339        N  0.21080541  0.69554120  0.97071855    -0.77000
C340        C  0.19830728  0.68439339  0.99791393     0.83800
N341        N  0.20778892  0.69652510  0.02579783    -0.78700
C342        C  0.24359963  0.46685621  0.77705741     0.81300
N343        N  0.22311262  0.46880015  0.80151796    -0.77000
C344        C  0.21162890  0.49714562  0.81094991     0.83700
N345        N  0.22080364  0.52382317  0.79597073    -0.77000
C346        C  0.24129340  0.52257448  0.77156223     0.83800
N347        N  0.25292765  0.49393946  0.76187771    -0.78700
C348        C  0.24785544  0.25099908  0.96799658     0.81300
N349        N  0.25841183  0.23636903  0.99516621    -0.77000
C350        C  0.25062383  0.24908379  0.02390312     0.83700
N351        N  0.23282613  0.27567164  0.02511073    -0.77000
C352        C  0.22242969  0.28983392  0.99843878     0.83800
N353        N  0.22993149  0.27763801  0.96999786    -0.78700
N354        N  0.14099256  0.45258058  0.97217410    -0.35600
N355        N  0.13223664  0.52038310  0.97599575    -0.56100
N356        N  0.12962634  0.51877778  0.04530532    -0.35600
N357        N  0.14075215  0.45069873  0.04137914    -0.56100
C358        C  0.15035067  0.46163427  0.94296082     0.28000
C359        C  0.15409574  0.42385812  0.97777475     0.28000
C360        C  0.13520698  0.54989438  0.04000157     0.28000
C361        C  0.13954433  0.51243749  0.07521253     0.28000
C362        C  0.13032376  0.51679712  0.94435391     0.36600
C363        C  0.12479904  0.55082285  0.98194497     0.36600
C364        C  0.14268699  0.41936325  0.03539579     0.36600
C365        C  0.13738794  0.45355897  0.07297295     0.36600
C366        C  0.16850235  0.43788237  0.92950679    -0.20800
C367        C  0.17050120  0.41391904  0.95124245    -0.20800
C368        C  0.14683314  0.56376997  0.06740222    -0.20800
C369        C  0.14963506  0.54015838  0.08956495    -0.20800
C370        C  0.12109744  0.54490673  0.93006243    -0.21900
C371        C  0.11783299  0.56657699  0.95387847    -0.21900
C372        C  0.14018794  0.40221337  0.06326281    -0.21900
C373        C  0.13684431  0.42390661  0.08709035    -0.21900
C374        C  0.14352499  0.49094925  0.92817855    -0.17300
C375        C  0.15262238  0.40653076  0.00637752    -0.17300
C376        C  0.14131339  0.48218371  0.08962041    -0.17200
C377        C  0.13215086  0.56594399  0.01066566    -0.17200
H378        H  0.17971050  0.43786828  0.90659575     0.15700
H379        H  0.18342109  0.39200426  0.94803395     0.15700
H380        H  0.15365828  0.58822409  0.07077420     0.15700
H381        H  0.15905933  0.54297762  0.11325651     0.15700
H382        H  0.11930135  0.54982422  0.90497370     0.13900
H383        H  0.11299886  0.59154719  0.95062606     0.13900
H384        H  0.14236398  0.37683217  0.06630062     0.13900
H385        H  0.13596430  0.41859986  0.11212713     0.13900
H386        H  0.12650194  0.46512985  0.98745273     0.27200
H387        H  0.12040155  0.50269065  0.02917844     0.27200
C388        C  0.23662884  0.50521278  0.24828521     0.81300
N389        N  0.24659185  0.47692487  0.26089860    -0.77000
C390        C  0.23513352  0.44919913  0.24864362     0.83700
N391        N  0.21483860  0.45005925  0.22364882    -0.77000
C392        C  0.20518833  0.47799581  0.21112190     0.83800
N393        N  0.21632872  0.50539044  0.22327190    -0.78700
C394        C  0.54023797  0.75184052  0.22067863     0.81300
N395        N  0.53714176  0.77385564  0.19741335    -0.77000
C396        C  0.50859731  0.78079610  0.18457135     0.83700
N397        N  0.48259175  0.76576633  0.19523161    -0.77000
C398        C  0.48476790  0.74336450  0.21819104     0.83800
N399        N  0.51376564  0.73656189  0.23150152    -0.78700
C400        C  0.74316530  0.96272771  0.23325552     0.81300
N401        N  0.75607446  0.99052967  0.24363274    -0.77000
C402        C  0.74341188  0.01867327  0.23345820     0.83700
N403        N  0.71820335  0.01872188  0.21342964    -0.77000
C404        C  0.70560756  0.99118802  0.20309931     0.83800
N405        N  0.71810375  0.96335647  0.21305117    -0.78700
C406        C  0.27281479  0.00380957  0.22115775     0.81300
N407        N  0.26101195  0.97500709  0.23031049    -0.77000
C408        C  0.27370304  0.94786237  0.21786326     0.83700
N409        N  0.29796303  0.94999871  0.19720454    -0.77000
C410        C  0.30915990  0.97838553  0.18797050     0.83800
N411        N  0.29682766  0.00513021  0.20016724    -0.78700
N412        N  0.54283122  0.94925489  0.12249976    -0.35600
N413        N  0.47393850  0.95100481  0.11784911    -0.56100
N414        N  0.47290355  0.02033021  0.11692181    -0.35600
N415        N  0.54155766  0.01818408  0.12398809    -0.56100
C416        C  0.53536649  0.91948461  0.13163861     0.28000
C417        C  0.57163885  0.95575175  0.13511117     0.28000
C418        C  0.44221218  0.01428269  0.12330360     0.28000
C419        C  0.47861409  0.05022130  0.12684728     0.28000
C420        C  0.47854064  0.91942389  0.11563474     0.36600
C421        C  0.44262236  0.95602547  0.11353906     0.36600
C422        C  0.57306451  0.01320115  0.12276685     0.36600
C423        C  0.53717420  0.04974754  0.12145674     0.36600
C424        C  0.56024470  0.90655875  0.14908021    -0.20800
C425        C  0.58302934  0.92947809  0.15139316    -0.20800
C426        C  0.42785688  0.04128454  0.13526274    -0.20800
C427        C  0.45079518  0.06394723  0.13744000    -0.20800
C428        C  0.45008736  0.90434077  0.10944328    -0.21900
C429        C  0.42728799  0.92754368  0.10829713    -0.21900
C430        C  0.58877948  0.04167275  0.11879949    -0.21900
C431        C  0.56603096  0.06489377  0.11836536    -0.21900
C432        C  0.50645564  0.90375952  0.12552581    -0.17300
C433        C  0.58776201  0.98493397  0.13292463    -0.17300
C434        C  0.50847778  0.06509321  0.12847042    -0.17200
C435        C  0.42703734  0.98461451  0.12085605    -0.17200
H436        H  0.56159152  0.88327523  0.15980772     0.15700
H437        H  0.60520212  0.92718269  0.16419681     0.15700
H438        H  0.40357028  0.04410400  0.14273977     0.15700
H439        H  0.44753417  0.08754140  0.14683485     0.15700
H440        H  0.44593863  0.87909757  0.10798740     0.13900
H441        H  0.40207258  0.92377888  0.10570600     0.13900
H442        H  0.61410742  0.04546355  0.11879354     0.13900
H443        H  0.57041652  0.09010777  0.11764374     0.13900
H444        H  0.52911137  0.96420860  0.10836760     0.27200
H445        H  0.48917962  0.00463728  0.10740667     0.27200
C446        C  0.53906730  0.21885763  0.23156522     0.81300
N447        N  0.53955000  0.19393380  0.21139110    -0.77000
C448        C  0.51233081  0.18022487  0.20173254     0.83700
N449        N  0.48434222  0.19116973  0.21248079    -0.77000
C450        C  0.48317602  0.21617764  0.23244141     0.83800
N451        N  0.51070497  0.23017981  0.24233600    -0.78700
C452        C  0.78299243  0.25101233  0.47754168     0.81300
N453        N  0.76859631  0.24497386  0.50579406    -0.77000
C454        C  0.78275357  0.25482648  0.53328990     0.83700
N455        N  0.81063139  0.27066509  0.53219837    -0.77000
C456        C  0.82466010  0.27649058  0.50417342     0.83800
N457        N  0.81080773  0.26678610  0.47707533    -0.78700
C458        C  0.04210870  0.27126456  0.73604454     0.81300
N459        N  0.03954624  0.29100979  0.71083578    -0.77000
C460        C  0.01098336  0.30100111  0.70021874     0.83700
N461        N  0.98441550  0.29075930  0.71459345    -0.77000
C462        C  0.98612908  0.27105031  0.73999435     0.83800
N463        N  0.01519524  0.26072421  0.75066382    -0.78700
C464        C  0.04146332  0.24615456  0.25857120     0.81300
N465        N  0.01149675  0.23684457  0.25072815    -0.77000
C466        C  0.98625449  0.25061952  0.26542802     0.83700
N467        N  0.99126783  0.27305172  0.28791857    -0.77000
C468        C  0.02109494  0.28202856  0.29581454     0.83800
N469        N  0.04590869  0.26851124  0.28102731    -0.78700
N470        N  0.05457483  0.35820359  0.46185865    -0.35600
N471        N  0.98638455  0.35551982  0.45727169    -0.56100
N472        N  0.98556411  0.35644684  0.52714213    -0.35600
N473        N  0.05351389  0.36443763  0.53163817    -0.56100
C474        C  0.05052425  0.36125871  0.43028287     0.28000
C475        C  0.08505194  0.36462921  0.46861983     0.28000
C476        C  0.95442717  0.35740118  0.52025453     0.28000
C477        C  0.98892887  0.36248901  0.55829606     0.28000
C478        C  0.99371729  0.34669343  0.42745385     0.36600
C479        C  0.95675211  0.34490971  0.46257408     0.36600
C480        C  0.08442298  0.35760208  0.52727964     0.36600
C481        C  0.04735799  0.35747687  0.56224961     0.36600
C482        C  0.07883975  0.37036855  0.41670833    -0.20800
C483        C  0.10075303  0.37223644  0.44093012    -0.20800
C484        C  0.93765954  0.36465508  0.54741782    -0.20800
C485        C  0.95949903  0.36796188  0.57142711    -0.20800
C486        C  0.96815237  0.33158793  0.41342690    -0.21900
C487        C  0.94470583  0.33063023  0.43559577    -0.21900
C488        C  0.09824908  0.34782254  0.55554525    -0.21900
C489        C  0.07475246  0.34777816  0.57771691    -0.21900
C490        C  0.02364819  0.35080626  0.41319815    -0.17300
C491        C  0.10000596  0.35780884  0.49779545    -0.17300
C492        C  0.01697296  0.35779115  0.57596641    -0.17200
C493        C  0.94072768  0.34653474  0.49177941    -0.17200
H494        H  0.08362111  0.37333758  0.39176570     0.15700
H495        H  0.12573891  0.37697492  0.43824481     0.15700
H496        H  0.91225269  0.36577186  0.55014226     0.15700
H497        H  0.95423290  0.37209495  0.59608451     0.15700
H498        H  0.96673679  0.32140875  0.39002075     0.13900
H499        H  0.92173224  0.31975727  0.43250005     0.13900
H500        H  0.12253406  0.34049152  0.55952825     0.13900
H501        H  0.07730847  0.34035089  0.60212650     0.13900
H502        H  0.03859165  0.34809694  0.47763731     0.27200
H503        H  0.00314363  0.34799891  0.51211105     0.27200
C504        C  0.25563239  0.26082557  0.52217890     0.81300
N505        N  0.23026581  0.28039360  0.52026609    -0.77000
C506        C  0.21663437  0.28724317  0.49215076     0.83700
N507        N  0.22818554  0.27435456  0.46542123    -0.77000
C508        C  0.25374251  0.25483986  0.46655031     0.83800
N509        N  0.26750155  0.24752766  0.49517617    -0.78700
Zn510      Zn  0.23461954  0.20070388  0.21788524     1.49700
Zn511      Zn  0.28454337  0.25753119  0.22226613     1.49400
Zn512      Zn  0.23066988  0.24901244  0.27554314     1.49100
Zn513      Zn  0.28735538  0.19846627  0.27232782     1.49500
O514        O  0.25957982  0.22665369  0.24710709    -1.83100
O515        O  0.24704225  0.20844139  0.17269131    -0.73700
O516        O  0.27385235  0.30308858  0.23613600    -0.73500
O517        O  0.18464416  0.23879788  0.26460104    -0.73000
O518        O  0.27686147  0.25137795  0.17405107    -0.73700
O519        O  0.18762466  0.20896042  0.22139811    -0.73300
O520        O  0.23737248  0.29648714  0.27273280    -0.73900
O521        O  0.28239192  0.20715793  0.31982453    -0.73300
O522        O  0.33188792  0.25071278  0.23093553    -0.74100
O523        O  0.24026676  0.23889084  0.32151160    -0.73400
O524        O  0.33312183  0.20860350  0.26202294    -0.73900
O525        O  0.27825750  0.15115651  0.26314934    -0.73800
O526        O  0.24077810  0.15444993  0.22675846    -0.73600
C527        C  0.26249426  0.22982365  0.15828448     0.78200
C528        C  0.25527604  0.31472802  0.25688294     0.78700
C529        C  0.17147311  0.22354028  0.24205835     0.77600
C530        C  0.26241594  0.22353848  0.33535289     0.78000
C531        C  0.34768442  0.23013643  0.24672856     0.79100
C532        C  0.25862114  0.13763009  0.24441785     0.78200
C533        C  0.26403853  0.24076150  0.43604781    -0.04300
C534        C  0.24713998  0.21467599  0.42371762    -0.01400
C535        C  0.24796267  0.20775357  0.39099087     0.03600
C536        C  0.26583495  0.22678306  0.37031249    -0.04300
C537        C  0.28447851  0.25153475  0.38293322    -0.01400
C538        C  0.28365726  0.25842650  0.41567216     0.03600
C539        C  0.22730208  0.19615737  0.44454570     0.38200
C540        C  0.30292999  0.27122445  0.36181794     0.38200
C541        C  0.30161633  0.28487699  0.42811935     0.36600
C542        C  0.22910752  0.18207686  0.37831579     0.36600
N543        N  0.31606412  0.30594547  0.43797278    -0.38200
N544        N  0.21400529  0.16161199  0.36818370    -0.38200
N545        N  0.31745135  0.28693288  0.34481696    -0.37600
N546        N  0.21152154  0.18144368  0.46128088    -0.37600
C547        C  0.13052729  0.34040262  0.49583149    -0.04300
C548        C  0.12975864  0.30695147  0.49430035    -0.01400
C549        C  0.15803543  0.28968518  0.49170626     0.03600
C550        C  0.18719320  0.30572683  0.49144576    -0.04300
C551        C  0.18810428  0.33904970  0.49334389    -0.01400
C552        C  0.15968417  0.35646177  0.49539372     0.03600
C553        C  0.09981983  0.29027119  0.49651792     0.38200
C554        C  0.21830778  0.35524187  0.49327325     0.38200
C555        C  0.16034468  0.39069581  0.49746999     0.36600
C556        C  0.15715940  0.25534370  0.49007832     0.36600
N557        N  0.16084935  0.41804579  0.49906515    -0.38200
N558        N  0.15630891  0.22798375  0.48876582    -0.38200
N559        N  0.24250603  0.36799496  0.49317644    -0.37600
N560        N  0.07591300  0.27715548  0.49864522    -0.37600
C561        C  0.07026384  0.23101766  0.24570871    -0.04300
C562        C  0.08678276  0.24622026  0.22111063    -0.01400
C563        C  0.11980064  0.24168210  0.21804860     0.03600
C564        C  0.13637992  0.22263890  0.24019072    -0.04300
C565        C  0.11923868  0.20446280  0.26221283    -0.01400
C566        C  0.08614731  0.20830622  0.26461291     0.03600
C567        C  0.07010204  0.26813617  0.20038974     0.38200
C568        C  0.13585625  0.18265544  0.28312884     0.38200
C569        C  0.06862637  0.19049487  0.28800723     0.36600
C570        C  0.13696694  0.25799703  0.19334954     0.36600
N571        N  0.05457448  0.17629024  0.30663264    -0.38200
N572        N  0.15069098  0.27085200  0.17353917    -0.38200
N573        N  0.14918895  0.16524322  0.29975138    -0.37600
N574        N  0.05672577  0.28558815  0.18384452    -0.37600
C575        C  0.02670588  0.30293184  0.32342246    -0.04300
C576        C  0.04533108  0.29182394  0.34906038    -0.01400
C577        C  0.04570385  0.30846840  0.37780857     0.03600
C578        C  0.02852120  0.33710336  0.38087715    -0.04300
C579        C  0.01324195  0.35019504  0.35397814    -0.01400
C580        C  0.01206120  0.33296817  0.32537000     0.03600
C581        C  0.06325754  0.26253594  0.34658163     0.38200
C582        C  0.99814311  0.38097168  0.35605894     0.38200
C583        C  0.99645031  0.34634094  0.29771588     0.36600
C584        C  0.06258030  0.29498110  0.40466938     0.36600
N585        N  0.98432456  0.35704120  0.27547133    -0.38200
N586        N  0.07634791  0.28390418  0.42572231    -0.38200
N587        N  0.98616413  0.40559819  0.35766639    -0.37600
N588        N  0.07802491  0.23948110  0.34488238    -0.37600
C589        C  0.00898163  0.31684598  0.66916471    -0.04300
C590        C  0.00420839  0.29812634  0.64203991    -0.01400
C591        C  0.00694261  0.31170655  0.61181713     0.03600
C592        C  0.01334797  0.34438705  0.60848177    -0.04300
C593        C  0.01635316  0.36349723  0.63564406    -0.01400
C594        C  0.01472190  0.34959814  0.66604059     0.03600
C595        C  0.99718913  0.26461676  0.64527679     0.38200
C596        C  0.02092034  0.39731179  0.63222205     0.38200
C597        C  0.01903849  0.36879843  0.69408586     0.36600
C598        C  0.00403561  0.29180282  0.58404545     0.36600
N599        N  0.02247096  0.38401974  0.71655425    -0.38200
N600        N  0.00189955  0.27587245  0.56193333    -0.38200
N601        N  0.02428164  0.42437087  0.62949066    -0.37600
N602        N  0.99138792  0.23797659  0.64795956    -0.37600
C603        C  0.85423063  0.29455675  0.50267489    -0.04300
C604        C  0.88344003  0.27843972  0.50210472    -0.01400
C605        C  0.91160543  0.29562317  0.49852308     0.03600
C606        C  0.91050567  0.32891439  0.49478451    -0.04300
C607        C  0.88124584  0.34498850  0.49514564    -0.01400
C608        C  0.85311245  0.32781961  0.49956117     0.03600
C609        C  0.88447540  0.24418676  0.50501359     0.38200
C610        C  0.88023573  0.37909740  0.49116842     0.38200
C611        C  0.82297758  0.34427534  0.50098720     0.36600
C612        C  0.94179873  0.27907163  0.49833693     0.36600
N613        N  0.79889677  0.35731782  0.50233757    -0.38200
N614        N  0.96591777  0.26601011  0.49792965    -0.38200
N615        N  0.87952382  0.40634036  0.48812203    -0.37600
N616        N  0.88539537  0.21687193  0.50728421    -0.37600
C617        C  0.45128456  0.22649111  0.24310378    -0.04300
C618        C  0.43471081  0.20732027  0.26456435    -0.01400
C619        C  0.40138982  0.20948086  0.26695383     0.03600
C620        C  0.38373162  0.23081711  0.24725415    -0.04300
C621        C  0.40123261  0.25224971  0.22789962    -0.01400
C622        C  0.43470111  0.25004159  0.22610978     0.03600
C623        C  0.45214381  0.18465842  0.28390255     0.38200
C624        C  0.38539640  0.27622595  0.20884550     0.38200
C625        C  0.45225570  0.27141839  0.20587539     0.36600
C626        C  0.38583615  0.18899287  0.28963152     0.36600
N627        N  0.46639974  0.28858586  0.18999803    -0.38200
N628        N  0.37358685  0.17252563  0.30769879    -0.38200
N629        N  0.37317605  0.29552338  0.19350184    -0.37600
N630        N  0.46589020  0.16672805  0.29960103    -0.37600
C631        C  0.51061437  0.09510580  0.14683956    -0.04300
C632        C  0.51432625  0.12454246  0.13154961    -0.01400
C633        C  0.51641081  0.15251278  0.14958903     0.03600
C634        C  0.51315541  0.15111564  0.18274551    -0.04300
C635        C  0.50923531  0.12172524  0.19801274    -0.01400
C636        C  0.50819379  0.09376050  0.18018733     0.03600
C637        C  0.51500953  0.12596677  0.09731980     0.38200
C638        C  0.50637894  0.12024411  0.23217956     0.38200
C639        C  0.50318840  0.06368316  0.19612760     0.36600
C640        C  0.52180218  0.18265381  0.13409523     0.36600
N641        N  0.49866798  0.03984956  0.20888685    -0.38200
N642        N  0.52640189  0.20662161  0.12163315    -0.38200
N643        N  0.50418493  0.11892883  0.25940488    -0.37600
N644        N  0.51532239  0.12689449  0.06997568    -0.37600
C645        C  0.26036320  0.03467119  0.23254279    -0.04300
C646        C  0.24349943  0.05396480  0.21103751    -0.01400
C647        C  0.24099882  0.08699374  0.21591710     0.03600
C648        C  0.25682959  0.10174055  0.24200202    -0.04300
C649        C  0.27172491  0.08159453  0.26482806    -0.01400
C650        C  0.27297627  0.04832426  0.26022727     0.03600
C651        C  0.23038705  0.03985802  0.18250526     0.38200
C652        C  0.28668214  0.09470051  0.29283375     0.38200
C653        C  0.28874017  0.02814426  0.28331243     0.36600
C654        C  0.22302871  0.10532103  0.19281643     0.36600
N655        N  0.30115852  0.01212599  0.30191245    -0.38200
N656        N  0.20849864  0.11959672  0.17429832    -0.38200
N657        N  0.29889207  0.10500520  0.31511516    -0.37600
N658        N  0.22023611  0.02859073  0.15968530    -0.37600
C659        C  0.39601090  0.98174780  0.13700148    -0.04300
C660        C  0.39603453  0.97773390  0.17020990    -0.01400
C661        C  0.36739625  0.97630423  0.18656328     0.03600
C662        C  0.33861027  0.97981087  0.16999214    -0.04300
C663        C  0.33837378  0.98513376  0.13704518    -0.01400
C664        C  0.36719988  0.98580473  0.12042780     0.03600
C665        C  0.42561534  0.97750516  0.18787822     0.38200
C666        C  0.30864338  0.99064360  0.12055854     0.38200
C667        C  0.36744865  0.99166489  0.08665956     0.36600
C668        C  0.36749498  0.97242101  0.22073026     0.36600
N669        N  0.36775204  0.99645659  0.05970632    -0.38200
N670        N  0.36735652  0.96947713  0.24794504    -0.38200
N671        N  0.28491371  0.99531542  0.10747479    -0.37600
N672        N  0.44908540  0.97832841  0.20210824    -0.37600
C673        C  0.67635586  0.99137348  0.18385023    -0.04300
C674        C  0.64851438  0.00436082  0.19665472    -0.01400
C675        C  0.61989462  0.00259461  0.17969027     0.03600
C676        C  0.61884905  0.98789561  0.14969713    -0.04300
C677        C  0.64674076  0.97510678  0.13673378    -0.01400
C678        C  0.67554721  0.97701831  0.15372535     0.03600
C679        C  0.64889657  0.01826544  0.22802680     0.38200
C680        C  0.64557544  0.95950433  0.10626511     0.38200
C681        C  0.70441960  0.96474782  0.14000509     0.36600
C682        C  0.59125685  0.01509401  0.19371024     0.36600
N683        N  0.72744881  0.95510939  0.12889048    -0.38200
N684        N  0.56861298  0.02524634  0.20509355    -0.38200
N685        N  0.64454663  0.94683649  0.08205588    -0.37600
N686        N  0.64901602  0.02929531  0.25303831    -0.37600
C687        C  0.50476657  0.81093062  0.16742983    -0.04300
C688        C  0.51369621  0.81423054  0.13552873    -0.01400
C689        C  0.51281354  0.84440802  0.12100415     0.03600
C690        C  0.50318835  0.87108980  0.13852944    -0.04300
C691        C  0.49354938  0.86742336  0.17021113    -0.01400
C692        C  0.49446269  0.83751357  0.18463512     0.03600
C693        C  0.52434614  0.78679808  0.11801635     0.38200
C694        C  0.48463605  0.89477474  0.18877992     0.38200
C695        C  0.48678724  0.83443364  0.21796444     0.36600
C696        C  0.52256029  0.84829050  0.08845351     0.36600
N697        N  0.48100119  0.83188464  0.24455159    -0.38200
N698        N  0.53031744  0.85149008  0.06245891    -0.38200
N699        N  0.47777923  0.91626977  0.20416119    -0.37600
N700        N  0.53287333  0.76490126  0.10402177    -0.37600
C701        C  0.24536451  0.41737023  0.26014797    -0.04300
C702        C  0.27353465  0.40362204  0.24891769    -0.01400
C703        C  0.27820573  0.37040161  0.25065525     0.03600
C704        C  0.25388726  0.35027035  0.26212364    -0.04300
C705        C  0.22786746  0.36488162  0.27774523    -0.01400
C706        C  0.22356378  0.39814598  0.27627916     0.03600
C707        C  0.29708086  0.42353292  0.23408769     0.38200
C708        C  0.20526972  0.34627556  0.29549682     0.38200
C709        C  0.19598951  0.41273929  0.29050726     0.36600
C710        C  0.30862108  0.35733019  0.24171949     0.36600
N711        N  0.17409601  0.42449250  0.30189911    -0.38200
N712        N  0.33308324  0.34698978  0.23509850    -0.38200
N713        N  0.18736744  0.33173207  0.31013143    -0.37600
N714        N  0.31592612  0.43933711  0.22221757    -0.37600
C715        C  0.15684269  0.48004444  0.12143226    -0.04300
C716        C  0.19001000  0.47577615  0.12311084    -0.01400
C717        C  0.20555045  0.47483841  0.15257894     0.03600
C718        C  0.18811399  0.47840936  0.18060583    -0.04300
C719        C  0.15506409  0.48312000  0.17910556    -0.01400
C720        C  0.13938843  0.48388661  0.14946600     0.03600
C721        C  0.20836310  0.47359359  0.09435208     0.38200
C722        C  0.13739007  0.48746216  0.20800740     0.38200
C723        C  0.10552572  0.48913506  0.14765709     0.36600
C724        C  0.23971709  0.47105416  0.15404877     0.36600
N725        N  0.07849059  0.49343148  0.14614771    -0.38200
N726        N  0.26694484  0.46812793  0.15521193    -0.38200
N727        N  0.12337859  0.49100029  0.23113808    -0.37600
N728        N  0.22308501  0.47218592  0.07145874    -0.37600
C729        C  0.25969317  0.23500865  0.05492776    -0.04300
C730        C  0.23687478  0.21729391  0.07136447    -0.01400
C731        C  0.23799428  0.21498824  0.10477010     0.03600
C732        C  0.26284599  0.22968336  0.12241654    -0.04300
C733        C  0.28737681  0.24482224  0.10525713    -0.01400
C734        C  0.28528470  0.24813636  0.07193323     0.03600
C735        C  0.21058072  0.20356477  0.05387720     0.38200
C736        C  0.31485862  0.25738672  0.12157590     0.38200
C737        C  0.30827098  0.26723265  0.05520448     0.36600
C738        C  0.21197436  0.19930332  0.12059132     0.36600
N739        N  0.32632798  0.28269907  0.04176572    -0.38200
N740        N  0.19107254  0.18688049  0.13302457    -0.38200
N741        N  0.33696587  0.26737716  0.13435765    -0.37600
N742        N  0.18960394  0.19269684  0.03994318    -0.37600
C743        C  0.20428942  0.31928781  0.00073344    -0.04300
C744        C  0.22047845  0.34788847  0.00588057    -0.01400
C745        C  0.20330956  0.37611004  0.00943986     0.03600
C746        C  0.16989210  0.37581757  0.00732194    -0.04300
C747        C  0.15368674  0.34704743  0.00285539    -0.01400
C748        C  0.17095084  0.31868468  0.99960095     0.03600
C749        C  0.25485075  0.34836299  0.00663523     0.38200
C750        C  0.11940754  0.34674238  0.00147245     0.38200
C751        C  0.15454662  0.28889429  0.99516696     0.36600
C752        C  0.22008536  0.40576930  0.01355060     0.36600
N753        N  0.14149557  0.26509070  0.99170595    -0.38200
N754        N  0.23357679  0.42940738  0.01630965    -0.38200
N755        N  0.09203096  0.34640122  0.00054652    -0.37600
N756        N  0.28223862  0.34876989  0.00707126    -0.37600
C757        C  0.19146069  0.49914375  0.83920138    -0.04300
C758        C  0.20136762  0.51763517  0.86515392    -0.01400
C759        C  0.18501769  0.51576430  0.89388981     0.03600
C760        C  0.15753700  0.49686360  0.89635304    -0.04300
C761        C  0.14606127  0.48066796  0.86950299    -0.01400
C762        C  0.16341708  0.48117750  0.84117738     0.03600
C763        C  0.22938604  0.53738492  0.86294689     0.38200
C764        C  0.11705499  0.46256250  0.87150361     0.38200
C765        C  0.15253741  0.46313638  0.81409241     0.36600
C766        C  0.19779751  0.53187797  0.92135418     0.36600
N767        N  0.14403124  0.44870661  0.79243444    -0.38200
N768        N  0.20847889  0.54489879  0.94292116    -0.38200
N769        N  0.09388347  0.44813841  0.87313698    -0.37600
N770        N  0.25152995  0.55334135  0.86116084    -0.37600
C771        C  0.18056240  0.65457823  0.99841615    -0.04300
C772        C  0.14722004  0.65445920  0.00007106    -0.01400
C773        C  0.13103897  0.62564063  0.00473185     0.03600
C774        C  0.14830126  0.59711747  0.00762449    -0.04300
C775        C  0.18176473  0.59752132  0.00648608    -0.01400
C776        C  0.19777916  0.62615374  0.00189472     0.03600
C777        C  0.12974674  0.68397483  0.99756795     0.38200
C778        C  0.19985500  0.56853063  0.01122519     0.38200
C779        C  0.23217650  0.62661259  0.00206692     0.36600
C780        C  0.09683645  0.62522513  0.00703978     0.36600
N781        N  0.25955929  0.62715103  0.00245039    -0.38200
N782        N  0.06952787  0.62474435  0.00887208    -0.38200
N783        N  0.21420257  0.54546903  0.01541119    -0.37600
N784        N  0.11577250  0.70753205  0.99559162    -0.37600
C785        C  0.14166065  0.25103959  0.74507994    -0.04300
C786        C  0.12657348  0.27017227  0.76790169    -0.01400
C787        C  0.09321129  0.27435237  0.76721258     0.03600
C788        C  0.07459876  0.25929155  0.74380098    -0.04300
C789        C  0.08964700  0.23880219  0.72210958    -0.01400
C790        C  0.12292720  0.23473826  0.72271489     0.03600
C791        C  0.14563292  0.28677660  0.79115751     0.38200
C792        C  0.07086929  0.22297327  0.69808030     0.38200
C793        C  0.13804679  0.21456636  0.69957053     0.36600
C794        C  0.07822925  0.29554330  0.78949370     0.36600
N795        N  0.15011296  0.19852676  0.68105034    -0.38200
N796        N  0.06632388  0.31247482  0.80731900    -0.38200
N797        N  0.05587100  0.21039385  0.67889698    -0.37600
N798        N  0.16099895  0.30005282  0.80957282    -0.37600
C799        C  0.27018664  0.24988053  0.62176168    -0.04300
C800        C  0.28018360  0.27774250  0.60624830    -0.01400
C801        C  0.27936742  0.27969893  0.57287026     0.03600
C802        C  0.26804583  0.25407469  0.55457290    -0.04300
C803        C  0.25992814  0.22552900  0.56997341    -0.01400
C804        C  0.26109463  0.22339246  0.60342394     0.03600
C805        C  0.29085432  0.30466411  0.62465536     0.38200
C806        C  0.24818079  0.19911326  0.55154060     0.38200
C807        C  0.25062395  0.19470708  0.61908910     0.36600
C808        C  0.28900715  0.30869225  0.55719126     0.36600
N809        N  0.24212232  0.17196151  0.63174300    -0.38200
N810        N  0.29672723  0.33174894  0.54459236    -0.38200
N811        N  0.23878421  0.17799540  0.53687931    -0.37600
N812        N  0.29932191  0.32616967  0.63932262    -0.37600
C813        C  0.26536037  0.36870048  0.75671081    -0.04300
C814        C  0.25234159  0.38882315  0.73279718    -0.01400
C815        C  0.24653873  0.42130781  0.73883649     0.03600
C816        C  0.25525195  0.43476609  0.76804782    -0.04300
C817        C  0.27077887  0.41569061  0.79089646    -0.01400
C818        C  0.27590314  0.38301766  0.78542282     0.03600
C819        C  0.24499216  0.37651621  0.70161907     0.38200
C820        C  0.28055866  0.42961872  0.82079217     0.38200
C821        C  0.29130123  0.36449828  0.81016666     0.36600
C822        C  0.22920738  0.44030812  0.71585738     0.36600
N823        N  0.30372469  0.35004609  0.83002578    -0.38200
N824        N  0.21499648  0.45534580  0.69771658    -0.38200
N825        N  0.28816236  0.44070601  0.84465506    -0.37600
N826        N  0.23926424  0.36676506  0.67668422    -0.37600
C827        C  0.26187753  0.23474446  0.86857687    -0.04300
C828        C  0.23199212  0.22939300  0.88273299    -0.01400
C829        C  0.22861075  0.23075476  0.91591232     0.03600
C830        C  0.25447603  0.23891261  0.93557884    -0.04300
C831        C  0.28453572  0.24307128  0.92186577    -0.01400
C832        C  0.28839557  0.24041209  0.88865121     0.03600
C833        C  0.20380315  0.22541529  0.86327889     0.38200
C834        C  0.31101873  0.25247507  0.94168678     0.38200
C835        C  0.31966097  0.24423001  0.87525718     0.36600
C836        C  0.19779326  0.22531953  0.92983111     0.36600
N837        N  0.34462857  0.24731212  0.86462427    -0.38200
N838        N  0.17317163  0.22090496  0.94075326    -0.38200
N839        N  0.33205972  0.26023680  0.95750769    -0.37600
N840        N  0.18128958  0.22259309  0.84778063    -0.37600
C841        C  0.45681711  0.24855140  0.75805071    -0.04300
C842        C  0.43786136  0.26878098  0.77621800    -0.01400
C843        C  0.40494240  0.27081336  0.77054093     0.03600
C844        C  0.39015337  0.25116687  0.74727386    -0.04300
C845        C  0.41026314  0.23416462  0.72632917    -0.01400
C846        C  0.44338656  0.23303624  0.73178677     0.03600
C847        C  0.45216820  0.28596192  0.80235058     0.38200
C848        C  0.39739655  0.21719091  0.69940556     0.38200
C849        C  0.46358226  0.21424649  0.71149242     0.36600
C850        C  0.38683742  0.29285352  0.78955872     0.36600
N851        N  0.47965419  0.19932171  0.69521865    -0.38200
N852        N  0.37264209  0.31056614  0.80479014    -0.38200
N853        N  0.38742532  0.20361301  0.67779884    -0.37600
N854        N  0.46362428  0.29947655  0.82324648    -0.37600
C855        C  0.50013591  0.10959650  0.85719665    -0.04300
C856        C  0.51737690  0.13458812  0.87118143    -0.01400
C857        C  0.51890701  0.16441156  0.85596764     0.03600
C858        C  0.50331308  0.16921991  0.82666950    -0.04300
C859        C  0.48425336  0.14484400  0.81391751    -0.01400
C860        C  0.48309940  0.11512898  0.82883959     0.03600
C861        C  0.53446191  0.12913248  0.90055736     0.38200
C862        C  0.46681538  0.14953809  0.78448169     0.38200
C863        C  0.46586714  0.08970648  0.81358787     0.36600
C864        C  0.53588214  0.19031107  0.87072011     0.36600
N865        N  0.45190020  0.07006011  0.80067608    -0.38200
N866        N  0.54913007  0.21109476  0.88264973    -0.38200
N867        N  0.45261661  0.15318650  0.76123133    -0.37600
N868        N  0.54818877  0.12466008  0.92394423    -0.37600
C869        C  0.26691530  0.05288614  0.74740770    -0.04300
C870        C  0.24723717  0.07066683  0.76734222    -0.01400
C871        C  0.24479243  0.10385801  0.76386724     0.03600
C872        C  0.26207413  0.12004925  0.73986645    -0.04300
C873        C  0.27884593  0.10131699  0.71752074    -0.01400
C874        C  0.28145249  0.06799559  0.72157804     0.03600
C875        C  0.23160094  0.05484634  0.79347517     0.38200
C876        C  0.29392096  0.11598127  0.69050172     0.38200
C877        C  0.30037780  0.04928834  0.70004792     0.36600
C878        C  0.22590175  0.12092216  0.78678112     0.36600
N879        N  0.31535879  0.03432442  0.68279590    -0.38200
N880        N  0.21083636  0.13430530  0.80520781    -0.38200
N881        N  0.30598453  0.12750010  0.66885891    -0.37600
N882        N  0.21942436  0.04214120  0.81436803    -0.37600
C883        C  0.34073242  0.00296707  0.82011843    -0.04300
C884        C  0.33720228  0.00165084  0.85326308    -0.01400
C885        C  0.36427290  0.00091524  0.87300004     0.03600
C886        C  0.39458877  0.00162447  0.85939941    -0.04300
C887        C  0.39786629  0.00355301  0.82616416    -0.01400
C888        C  0.37098904  0.00462876  0.80665058     0.03600
C889        C  0.30585082  0.00083348  0.86691032     0.38200
C890        C  0.42899083  0.00169178  0.81190203     0.38200
C891        C  0.37444671  0.00583922  0.77250545     0.36600
C892        C  0.36111967  0.99796678  0.90697309     0.36600
N893        N  0.37702478  0.00673195  0.74529604    -0.38200
N894        N  0.35864366  0.99546131  0.93409835    -0.38200
N895        N  0.45379947  0.99956908  0.80068160    -0.37600
N896        N  0.28085838  0.00035543  0.87790156    -0.37600
C897        C  0.50478544  0.82519704  0.81784892    -0.04300
C898        C  0.50674560  0.85434633  0.80172888    -0.01400
C899        C  0.50459333  0.88290949  0.81855724     0.03600
C900        C  0.50234519  0.88260683  0.85189219    -0.04300
C901        C  0.49969157  0.85345622  0.86803782    -0.01400
C902        C  0.50029734  0.82472116  0.85091318     0.03600
C903        C  0.51082012  0.85488720  0.76767172     0.38200
C904        C  0.49615324  0.85318526  0.90207714     0.38200
C905        C  0.49606258  0.79475925  0.86713561     0.36600
C906        C  0.50324138  0.91270858  0.80143673     0.36600
N907        N  0.49238837  0.77083906  0.88001639    -0.38200
N908        N  0.50131811  0.93642723  0.78777937    -0.38200
N909        N  0.49333923  0.85305633  0.92927389    -0.37600
N910        N  0.51421053  0.85514024  0.74054580    -0.37600
C911        C  0.67130504  0.99199680  0.80911401    -0.04300
C912        C  0.66977318  0.00387423  0.84022402    -0.01400
C913        C  0.64096309  0.00293109  0.85679861     0.03600
C914        C  0.61353344  0.99096704  0.84190723    -0.04300
C915        C  0.61495256  0.98020446  0.81036892    -0.01400
C916        C  0.64391893  0.97990142  0.79432493     0.03600
C917        C  0.69780864  0.01704106  0.85509343     0.38200
C918        C  0.58619613  0.97164785  0.79359613     0.38200
C919        C  0.64525192  0.96832018  0.76206583     0.36600
C920        C  0.63919287  0.01511669  0.88874993     0.36600
N921        N  0.64626410  0.95904559  0.73637218    -0.38200
N922        N  0.63767499  0.02496526  0.91419900    -0.38200
N923        N  0.56334966  0.96544219  0.77976071    -0.37600
N924        N  0.72017537  0.02771019  0.86682771    -0.37600
C925        C  0.76607127  0.11666643  0.74963856    -0.04300
C926        C  0.74862409  0.09996662  0.72648657    -0.01400
C927        C  0.74370415  0.06694716  0.72977742     0.03600
C928        C  0.75547087  0.05058697  0.75663031    -0.04300
C929        C  0.77405222  0.06706938  0.77902443    -0.01400
C930        C  0.77952274  0.09989797  0.77542018     0.03600
C931        C  0.73359675  0.11718671  0.70068304     0.38200
C932        C  0.78569833  0.05062967  0.80697190     0.38200
C933        C  0.79738998  0.11691917  0.79932670     0.36600
C934        C  0.72492051  0.05006351  0.70650312     0.36600
N935        N  0.81152555  0.13064494  0.81837563    -0.38200
N936        N  0.71001526  0.03649711  0.68792761    -0.38200
N937        N  0.79482486  0.03750334  0.82933022    -0.37600
N938        N  0.72130422  0.13098470  0.68030186    -0.37600
C939        C  0.76106469  0.24489318  0.63188258    -0.04300
C940        C  0.75114421  0.27245068  0.61494899    -0.01400
C941        C  0.75572042  0.27470386  0.58186898     0.03600
C942        C  0.76878726  0.24914945  0.56498393    -0.04300
C943        C  0.77456021  0.22031993  0.58081847    -0.01400
C944        C  0.77092720  0.21813049  0.61403029     0.03600
C945        C  0.73651245  0.29888268  0.63109464     0.38200
C946        C  0.78523990  0.19314051  0.56287354     0.38200
C947        C  0.77703556  0.18799912  0.62951176     0.36600
C948        C  0.74764146  0.30371621  0.56508205     0.36600
N949        N  0.78191587  0.16388690  0.64173631    -0.38200
N950        N  0.74113687  0.32677271  0.55161185    -0.38200
N951        N  0.79348929  0.17148155  0.54836103    -0.37600
N952        N  0.72416922  0.31989449  0.64351592    -0.37600
C953        C  0.64077786  0.24297079  0.75858315    -0.04300
C954        C  0.62202295  0.22457264  0.73789628    -0.01400
C955        C  0.58889567  0.22276340  0.74216539     0.03600
C956        C  0.57447489  0.23863266  0.76765919    -0.04300
C957        C  0.59304894  0.25808548  0.78749293    -0.01400
C958        C  0.62604937  0.26045272  0.78282040     0.03600
C959        C  0.63703648  0.20631628  0.71315954     0.38200
C960        C  0.57824790  0.27486005  0.81337457     0.38200
C961        C  0.64510256  0.27986944  0.80377793     0.36600
C962        C  0.56978712  0.20357256  0.72107091     0.36600
N963        N  0.66035516  0.29533337  0.82048319    -0.38200
N964        N  0.55457278  0.18835755  0.70410826    -0.38200
N965        N  0.56632906  0.28819908  0.83399227    -0.37600
N966        N  0.64906496  0.19157916  0.69357180    -0.37600
C967        C  0.88895103  0.24799175  0.75964542    -0.04300
C968        C  0.90976227  0.22443968  0.74768726    -0.01400
C969        C  0.94268743  0.23051127  0.74474173     0.03600
C970        C  0.95538959  0.26011397  0.75352144    -0.04300
C971        C  0.93537696  0.28247790  0.76803912    -0.01400
C972        C  0.90252240  0.27666518  0.77108168     0.03600
C973        C  0.89745091  0.19394206  0.73797063     0.38200
C974        C  0.94861947  0.31225742  0.77887197     0.38200
C975        C  0.88271935  0.30148269  0.78415979     0.36600
C976        C  0.96340920  0.20675287  0.73130531     0.36600
N977        N  0.86702325  0.32134370  0.79458130    -0.38200
N978        N  0.98004428  0.18777058  0.72074396    -0.38200
N979        N  0.95918432  0.33595392  0.78760639    -0.37600
N980        N  0.88762658  0.16962362  0.73011667    -0.37600
C981        C  0.75554843  0.04988563  0.24405917    -0.04300
C982        C  0.77519878  0.06759920  0.22378605    -0.01400
C983        C  0.77868839  0.10058880  0.22817075     0.03600
C984        C  0.76301972  0.11595740  0.25321299    -0.04300
C985        C  0.74572424  0.09779850  0.27514774    -0.01400
C986        C  0.74152375  0.06494573  0.27026010     0.03600
C987        C  0.79057686  0.05208489  0.19747062     0.38200
C988        C  0.73093681  0.11323435  0.30184039     0.38200
C989        C  0.72096284  0.04701965  0.29091001     0.36600
C990        C  0.79757414  0.11898918  0.20632385     0.36600
N991        N  0.70439943  0.03269567  0.30722201    -0.38200
N992        N  0.81259093  0.13379262  0.18895846    -0.38200
N993        N  0.71926506  0.12557048  0.32320710    -0.37600
N994        N  0.80294077  0.03969366  0.17653001    -0.37600
C995        C  0.76117089  0.23961488  0.37943299    -0.04300
C996        C  0.77099709  0.21290012  0.39759819    -0.01400
C997        C  0.77534678  0.21543405  0.43075316     0.03600
C998        C  0.76822909  0.24397899  0.44639348    -0.04300
C999        C  0.75505913  0.26936468  0.42898908    -0.01400
C1000       C  0.75247831  0.26773482  0.39570337     0.03600
C1001       C  0.77675906  0.18270855  0.38237593     0.38200
C1002       C  0.74561138  0.29795692  0.44547558     0.38200
C1003       C  0.74327784  0.29611522  0.37842306     0.36600
C1004       C  0.78858403  0.18913627  0.44866629     0.36600
N1005       N  0.73619660  0.31890321  0.36477185    -0.38200
N1006       N  0.79921403  0.16818034  0.46296055    -0.38200
N1007       N  0.73786484  0.32056734  0.45878164    -0.37600
N1008       N  0.78120827  0.15857771  0.37025085    -0.35200
C1009       C  0.63626891  0.24001715  0.25130073    -0.04300
C1010       C  0.62218073  0.24988120  0.22250406    -0.01400
C1011       C  0.58939967  0.24590346  0.21728042     0.03600
C1012       C  0.57017436  0.23252668  0.24097055    -0.04300
C1013       C  0.58364889  0.22560636  0.27091397    -0.01400
C1014       C  0.61667363  0.22925316  0.27605634     0.03600
C1015       C  0.64157218  0.26393553  0.19805133     0.38200
C1016       C  0.56386439  0.21290989  0.29573795     0.38200
C1017       C  0.63073348  0.22014665  0.30612346     0.36600
C1018       C  0.57552171  0.25442279  0.18692008     0.36600
N1019       N  0.64198724  0.21285342  0.33011347    -0.38200
N1020       N  0.56438090  0.26114700  0.16272199    -0.38200
N1021       N  0.54799673  0.20288940  0.31555825    -0.37600
N1022       N  0.65704431  0.27534775  0.17867009    -0.37600
C1023       C  0.88566153  0.23736470  0.25101562    -0.04300
C1024       C  0.90372555  0.21442065  0.26834213    -0.01400
C1025       C  0.93697115  0.21772255  0.27191769     0.03600
C1026       C  0.95297746  0.24268216  0.25678678    -0.04300
C1027       C  0.93600483  0.26291445  0.23628357    -0.01400
C1028       C  0.90271886  0.26037312  0.23319953     0.03600
C1029       C  0.88869638  0.18665516  0.28176927     0.38200
C1030       C  0.95305757  0.28698834  0.21877898     0.38200
C1031       C  0.88665519  0.28169981  0.21138200     0.36600
C1032       C  0.95466006  0.19589957  0.29196378     0.36600
N1033       N  0.87417250  0.29868545  0.19369047    -0.38200
N1034       N  0.96867607  0.17848526  0.30802152    -0.38200
N1035       N  0.96694165  0.30599246  0.20487666    -0.37600
N1036       N  0.87688881  0.16424513  0.29214138    -0.37600
C1037       C  0.75521480  0.36318282  0.25510599    -0.04300
C1038       C  0.78149326  0.38318322  0.24909976    -0.01400
C1039       C  0.77723025  0.41636318  0.24507013     0.03600
C1040       C  0.74670182  0.42997321  0.24656755    -0.04300
C1041       C  0.72087291  0.41043413  0.25462308    -0.01400
C1042       C  0.72495975  0.37743382  0.25880993     0.03600
C1043       C  0.81299612  0.36973816  0.24658234     0.38200
C1044       C  0.68953158  0.42423024  0.25771541     0.38200
C1045       C  0.69722989  0.35811866  0.26476541     0.36600
C1046       C  0.80406835  0.43629965  0.23770086     0.36600
N1047       N  0.67507307  0.34280653  0.26947218    -0.38200
N1048       N  0.82545163  0.45230800  0.23191914    -0.38200
N1049       N  0.66443653  0.43492356  0.26026629    -0.37600
N1050       N  0.83814901  0.35905328  0.24442202    -0.37600
C1051       C  0.66065550  0.49053036  0.10638227    -0.04300
C1052       C  0.64489662  0.48884456  0.13554537    -0.01400
C1053       C  0.66246717  0.48930737  0.16403624     0.03600
C1054       C  0.69575592  0.49212896  0.16330140    -0.04300
C1055       C  0.71146539  0.49399402  0.13410074    -0.01400
C1056       C  0.69401372  0.49271585  0.10569664     0.03600
C1057       C  0.61069353  0.48639003  0.13601807     0.38200
C1058       C  0.74572005  0.49638820  0.13329500     0.38200
C1059       C  0.71050243  0.49253559  0.07572151     0.36600
C1060       C  0.64626548  0.48703597  0.19401349     0.36600
N1061       N  0.72386503  0.49190308  0.05195432    -0.38200
N1062       N  0.63301155  0.48525662  0.21778366    -0.38200
N1063       N  0.77302330  0.49828026  0.13263579    -0.37600
N1064       N  0.58337737  0.48451952  0.13615490    -0.37600
C1065       C  0.74698360  0.25090169  0.06411049    -0.04300
C1066       C  0.76011366  0.27569552  0.08225258    -0.01400
C1067       C  0.76332806  0.27277559  0.11539433     0.03600
C1068       C  0.75557897  0.24392981  0.13092562    -0.04300
C1069       C  0.74445124  0.21824619  0.11212936    -0.01400
C1070       C  0.73938717  0.22209987  0.07912612     0.03600
C1071       C  0.76955094  0.30490419  0.06672599     0.38200
C1072       C  0.73778961  0.18775167  0.12646787     0.38200
C1073       C  0.72435315  0.19715890  0.06096450     0.36600
C1074       C  0.77229927  0.30064169  0.13336147     0.36600
N1075       N  0.71205035  0.17743790  0.04648804    -0.38200
N1076       N  0.77910909  0.32304245  0.14755006    -0.38200
N1077       N  0.73244253  0.16337291  0.13779724    -0.37600
N1078       N  0.77708498  0.32811719  0.05429681    -0.37600
C1079       C  0.74897000  0.23771500  0.94611664    -0.04300
C1080       C  0.77711379  0.24871435  0.93229284    -0.01400
C1081       C  0.78298533  0.24347635  0.89982689     0.03600
C1082       C  0.75996611  0.22834131  0.88037214    -0.04300
C1083       C  0.73380666  0.21365634  0.89553940    -0.01400
C1084       C  0.72807098  0.21905470  0.92800170     0.03600
C1085       C  0.79886268  0.26774086  0.95086713     0.38200
C1086       C  0.71210370  0.19348807  0.87816222     0.38200
C1087       C  0.69927841  0.20735333  0.94241769     0.36600
C1088       C  0.81288367  0.25379764  0.88671690     0.36600
N1089       N  0.67624081  0.19839024  0.95400134    -0.38200
N1090       N  0.83677134  0.26186325  0.87622416    -0.38200
N1091       N  0.69482731  0.17701553  0.86469905    -0.37600
N1092       N  0.81616443  0.28313643  0.96551250    -0.37600
C1093       C  0.68693385  0.32091858  0.99486231    -0.04300
C1094       C  0.70255674  0.34901909  0.98617244    -0.01400
C1095       C  0.68582923  0.37778561  0.98537463     0.03600
C1096       C  0.65314708  0.37839701  0.99239144    -0.04300
C1097       C  0.63730452  0.35007911  0.00005092    -0.01400
C1098       C  0.65435047  0.32136141  0.00177573     0.03600
C1099       C  0.73619426  0.34851382  0.97931499     0.38200
C1100       C  0.60380964  0.35080899  0.00711685     0.38200
C1101       C  0.63862129  0.29237320  0.01112316     0.36600
C1102       C  0.70245955  0.40699501  0.97828888     0.36600
N1103       N  0.62621324  0.26919537  0.01870384    -0.38200
N1104       N  0.71562764  0.43030235  0.97262018    -0.38200
N1105       N  0.57707141  0.35144394  0.01280695    -0.37600
N1106       N  0.76299447  0.34804547  0.97387416    -0.37600
C1107       C  0.75594277  0.43078783  0.77400675    -0.04300
C1108       C  0.76267666  0.41125507  0.80056173    -0.01400
C1109       C  0.76660541  0.37813196  0.79705451     0.03600
C1110       C  0.76488545  0.36402654  0.76666211    -0.04300
C1111       C  0.76170620  0.38421586  0.73990122    -0.01400
C1112       C  0.75675168  0.41723664  0.74358758     0.03600
C1113       C  0.76506141  0.42522367  0.83183870     0.38200
C1114       C  0.76399786  0.37123171  0.70834828     0.38200
C1115       C  0.75054117  0.43694666  0.71608683     0.36600
C1116       C  0.77058033  0.35861885  0.82517112     0.36600
N1117       N  0.74545807  0.45277108  0.69422485    -0.38200
N1118       N  0.77369869  0.34310814  0.84761539    -0.38200
N1119       N  0.76619038  0.36111043  0.68307777    -0.37600
N1120       N  0.76707233  0.43622151  0.85680710    -0.37600
C1121       C  0.68286025  0.49763542  0.83179142    -0.04300
C1122       C  0.69592273  0.50551898  0.86143273    -0.01400
C1123       C  0.67719904  0.50385294  0.88857021     0.03600
C1124       C  0.64470215  0.49621765  0.88601737    -0.04300
C1125       C  0.63121363  0.48976480  0.85610515    -0.01400
C1126       C  0.65045839  0.49013344  0.82895008     0.03600
C1127       C  0.72892810  0.51475314  0.86410061     0.38200
C1128       C  0.59807454  0.48137582  0.85361242     0.38200
C1129       C  0.63712498  0.48276407  0.79817386     0.36600
C1130       C  0.69179140  0.50846140  0.91942032     0.36600
N1131       N  0.62654088  0.47701002  0.77354066    -0.38200
N1132       N  0.70344128  0.51178443  0.94402915    -0.38200
N1133       N  0.57166838  0.47440220  0.85166521    -0.37600
N1134       N  0.75513750  0.52238832  0.86618738    -0.37600
C1135       C  0.67847996  0.65883455  0.00103414    -0.04300
C1136       C  0.69370753  0.62940754  0.00513150    -0.01400
C1137       C  0.67613221  0.60138848  0.00375068     0.03600
C1138       C  0.64292383  0.60256129  0.99932976    -0.04300
C1139       C  0.62744984  0.63209289  0.99620334    -0.01400
C1140       C  0.64535670  0.66032052  0.99667784     0.03600
C1141       C  0.72764767  0.62794137  0.01082000     0.38200
C1142       C  0.59334721  0.63330497  0.99257831     0.38200
C1143       C  0.62988257  0.69079229  0.99282563     0.36600
C1144       C  0.69239414  0.57116626  0.00676196     0.36600
N1145       N  0.61758866  0.71516103  0.98975812    -0.38200
N1146       N  0.70535603  0.54710807  0.00928314    -0.38200
N1147       N  0.56609633  0.63428077  0.98973137    -0.37600
N1148       N  0.75462788  0.62675115  0.01561844    -0.37600
C1149       C  0.75503158  0.73856412  0.12552088    -0.04300
C1150       C  0.77796877  0.72473762  0.10565135    -0.01400
C1151       C  0.77199920  0.72178299  0.07273093     0.03600
C1152       C  0.74334914  0.73327681  0.05941389    -0.04300
C1153       C  0.72154753  0.74909821  0.07908239    -0.01400
C1154       C  0.72705933  0.75120833  0.11199245     0.03600
C1155       C  0.80672944  0.71166996  0.11943783     0.38200
C1156       C  0.69279526  0.76236966  0.06544079     0.38200
C1157       C  0.70329208  0.76530401  0.13220835     0.36600
C1158       C  0.79427182  0.70491134  0.05299070     0.36600
N1159       N  0.68429221  0.77626672  0.14846397    -0.38200
N1160       N  0.81200037  0.69134275  0.03725608    -0.38200
N1161       N  0.66995384  0.77307055  0.05447246    -0.37600
N1162       N  0.82960019  0.70117511  0.13055711    -0.37600
C1163       C  0.63922470  0.74208626  0.24719315    -0.04300
C1164       C  0.62368644  0.77189292  0.24886253    -0.01400
C1165       C  0.59074718  0.77439847  0.24303079     0.03600
C1166       C  0.57263096  0.74736943  0.23486453    -0.04300
C1167       C  0.58750295  0.71739332  0.23540339    -0.01400
C1168       C  0.62048017  0.71469685  0.24173815     0.03600
C1169       C  0.64162234  0.80062025  0.25467237     0.38200
C1170       C  0.56925015  0.68944509  0.22760263     0.38200
C1171       C  0.63499935  0.68352974  0.24259498     0.36600
C1172       C  0.57560294  0.80530978  0.24467345     0.36600
N1173       N  0.64655116  0.65863699  0.24332748    -0.38200
N1174       N  0.56372801  0.83002106  0.24585129    -0.38200
N1175       N  0.55461792  0.66718383  0.22131534    -0.37600
N1176       N  0.65580150  0.82358820  0.25927070    -0.37600
C1177       C  0.76633034  0.61516383  0.25121210    -0.04300
C1178       C  0.74506945  0.59783871  0.27017387    -0.01400
C1179       C  0.74149805  0.56474737  0.26592487     0.03600
C1180       C  0.75856182  0.54880991  0.24216113    -0.04300
C1181       C  0.78150966  0.56574941  0.22483432    -0.01400
C1182       C  0.78555850  0.59871673  0.22952448     0.03600
C1183       C  0.72571018  0.61437939  0.29299107     0.38200
C1184       C  0.80021896  0.54939835  0.20134293     0.38200
C1185       C  0.80853493  0.61605052  0.21101091     0.36600
C1186       C  0.71891500  0.54731735  0.28478417     0.36600
N1187       N  0.82688855  0.62995514  0.19633183    -0.38200
N1188       N  0.70103664  0.53324155  0.29987297    -0.38200
N1189       N  0.81532446  0.53641693  0.18267875    -0.37600
N1190       N  0.71020128  0.62764639  0.31112035    -0.37600
C1191       C  0.76566067  0.86425571  0.24716673    -0.04300
C1192       C  0.77790426  0.88133876  0.22084129    -0.01400
C1193       C  0.77328942  0.91444313  0.21820628     0.03600
C1194       C  0.75660764  0.93117068  0.24151804    -0.04300
C1195       C  0.74702690  0.91517408  0.26908546    -0.01400
C1196       C  0.75206363  0.88208065  0.27227869     0.03600
C1197       C  0.79428552  0.86529037  0.19546695     0.38200
C1198       C  0.73053293  0.93256049  0.29352993     0.38200
C1199       C  0.74326861  0.86675012  0.30167648     0.36600
C1200       C  0.78441486  0.93142019  0.19052512     0.36600
N1201       N  0.73636573  0.85462674  0.32521459    -0.38200
N1202       N  0.79313513  0.94523613  0.16859941    -0.38200
N1203       N  0.71732501  0.94635978  0.31303849    -0.37600
N1204       N  0.80751170  0.85288813  0.17506351    -0.37600
C1205       C  0.25293454  0.72803104  0.12597303    -0.04300
C1206       C  0.22173190  0.73383006  0.11503683    -0.01400
C1207       C  0.21506918  0.73597223  0.08233104     0.03600
C1208       C  0.23901804  0.73031800  0.05979363    -0.04300
C1209       C  0.27056393  0.72659697  0.07053087    -0.01400
C1210       C  0.27763803  0.72657136  0.10346422     0.03600
C1211       C  0.19625197  0.73785223  0.13752603     0.38200
C1212       C  0.29543053  0.72073611  0.04783807     0.38200
C1213       C  0.31027550  0.72425386  0.11387822     0.36600
C1214       C  0.18314581  0.74353061  0.07174298     0.36600
N1215       N  0.33659125  0.72299760  0.12154369    -0.38200
N1216       N  0.15772744  0.74975894  0.06337094    -0.38200
N1217       N  0.31518180  0.71591588  0.02964973    -0.37600
N1218       N  0.17599855  0.74083331  0.15554661    -0.37600
C1219       C  0.38833866  0.72299182  0.24253805    -0.04300
C1220       C  0.40119136  0.71158117  0.21397620    -0.01400
C1221       C  0.43380319  0.71506907  0.20752329     0.03600
C1222       C  0.45423873  0.72977558  0.22963679    -0.04300
C1223       C  0.44201016  0.73853122  0.25940102    -0.01400
C1224       C  0.40916614  0.73537755  0.26573841     0.03600
C1225       C  0.38070394  0.69630484  0.19103287     0.38200
C1226       C  0.46284455  0.75272774  0.28271660     0.38200
C1227       C  0.39649626  0.74706094  0.29521235     0.36600
C1228       C  0.44629369  0.70443187  0.17748695     0.36600
N1229       N  0.38643951  0.75662707  0.31869766    -0.38200
N1230       N  0.45634575  0.69598294  0.15356294    -0.38200
N1231       N  0.47957362  0.76391700  0.30134477    -0.37600
N1232       N  0.36438565  0.68376491  0.17293617    -0.37600
C1233       C  0.26120836  0.60265544  0.26024955    -0.04300
C1234       C  0.27921327  0.58308497  0.24017768    -0.01400
C1235       C  0.27397611  0.55001051  0.23951638     0.03600
C1236       C  0.24998693  0.53629212  0.25811334    -0.04300
C1237       C  0.23356691  0.55547617  0.27986592    -0.01400
C1238       C  0.23944422  0.58849925  0.28121651     0.03600
C1239       C  0.30197019  0.59721116  0.21893787     0.38200
C1240       C  0.20948503  0.54143896  0.29967341     0.38200
C1241       C  0.22213561  0.60813913  0.30324519     0.36600
C1242       C  0.29219742  0.53014197  0.21843842     0.36600
N1243       N  0.20844920  0.62378673  0.32095799    -0.38200
N1244       N  0.30684016  0.51420626  0.20178344    -0.38200
N1245       N  0.19028995  0.53018789  0.31548525    -0.37600
N1246       N  0.32000478  0.60848872  0.20184000    -0.37600
C1247       C  0.26016092  0.84905821  0.23841659    -0.04300
C1248       C  0.26343312  0.87076918  0.26364839    -0.01400
C1249       C  0.26428448  0.90383265  0.25752974     0.03600
C1250       C  0.26272987  0.91527882  0.22608759    -0.04300
C1251       C  0.25701102  0.89352286  0.20124195    -0.01400
C1252       C  0.25504723  0.86077474  0.20749064     0.03600
C1253       C  0.26788105  0.85905790  0.29565041     0.38200
C1254       C  0.25439608  0.90468039  0.16879672     0.38200
C1255       C  0.24740411  0.83904246  0.18199613     0.36600
C1256       C  0.26867314  0.92579250  0.28342717     0.36600
N1257       N  0.24104022  0.82166552  0.16182707    -0.38200
N1258       N  0.27194479  0.94318015  0.30428042    -0.38200
N1259       N  0.25277437  0.91346498  0.14288030    -0.37600
N1260       N  0.27155841  0.84966024  0.32116061    -0.37600
C1261       C  0.24916028  0.75344471  0.43717781    -0.04300
C1262       C  0.22346444  0.74456496  0.41737386    -0.01400
C1263       C  0.22869727  0.73486688  0.38593438     0.03600
C1264       C  0.25962015  0.73446041  0.37336212    -0.04300
C1265       C  0.28555274  0.73966935  0.39410854    -0.01400
C1266       C  0.28032516  0.74896357  0.42595906     0.03600
C1267       C  0.19127067  0.74557022  0.42908914     0.38200
C1268       C  0.31757211  0.73692161  0.38246450     0.38200
C1269       C  0.30701972  0.75538036  0.44664362     0.36600
C1270       C  0.20200129  0.72513390  0.36640119     0.36600
N1271       N  0.32831350  0.76029153  0.46327416    -0.38200
N1272       N  0.18082142  0.71726951  0.35080774    -0.38200
N1273       N  0.34323183  0.73455677  0.37339678    -0.37600
N1274       N  0.16543229  0.74634705  0.43793189    -0.37600
C1275       C  0.12172632  0.85691121  0.49331398    -0.04300
C1276       C  0.12407857  0.82386963  0.49837405    -0.01400
C1277       C  0.15384115  0.80911028  0.49978746     0.03600
C1278       C  0.18147301  0.82664509  0.49366292    -0.04300
C1279       C  0.17924551  0.85937804  0.48700502    -0.01400
C1280       C  0.14936946  0.87467581  0.48749725     0.03600
C1281       C  0.09568906  0.80495739  0.50215868     0.38200
C1282       C  0.20754364  0.87720213  0.47981070     0.38200
C1283       C  0.14687469  0.90842638  0.48158987     0.36600
C1284       C  0.15607237  0.77573100  0.50798051     0.36600
N1285       N  0.14471729  0.93533664  0.47668598    -0.38200
N1286       N  0.15798148  0.74921587  0.51476656    -0.38200
N1287       N  0.23006489  0.89152434  0.47393411    -0.37600
N1288       N  0.07304839  0.78992096  0.50510031    -0.37600
C1289       C  0.07370786  0.74199908  0.25909422    -0.04300
C1290       C  0.09230861  0.76370018  0.24191422    -0.01400
C1291       C  0.12489252  0.75780908  0.23712934     0.03600
C1292       C  0.13942586  0.73029908  0.24981569    -0.04300
C1293       C  0.12044559  0.70764031  0.26537302    -0.01400
C1294       C  0.08767583  0.71344443  0.26990882     0.03600
C1295       C  0.07807682  0.79285006  0.23026657     0.38200
C1296       C  0.13501637  0.67933979  0.27850290     0.38200
C1297       C  0.06862282  0.69078360  0.28708515     0.36600
C1298       C  0.14371107  0.78048317  0.21964492     0.36600
N1299       N  0.05336755  0.67268067  0.30073917    -0.38200
N1300       N  0.15872793  0.79850911  0.20562521    -0.38200
N1301       N  0.14665538  0.65679286  0.28909450    -0.37600
N1302       N  0.06661523  0.81609557  0.22109581    -0.37600
C1303       C  0.95512308  0.74838496  0.25122904    -0.04300
C1304       C  0.94080325  0.71856421  0.25537803    -0.01400
C1305       C  0.90760474  0.71516815  0.25140263     0.03600
C1306       C  0.88842380  0.74165325  0.24313429    -0.04300
C1307       C  0.90377851  0.77031333  0.23449872    -0.01400
C1308       C  0.93681372  0.77362555  0.23889441     0.03600
C1309       C  0.96010255  0.69166888  0.26482869     0.38200
C1310       C  0.88586325  0.79709258  0.22217813     0.38200
C1311       C  0.95207224  0.80351997  0.23159472     0.36600
C1312       C  0.89333510  0.68423488  0.25527845     0.36600
N1313       N  0.96430947  0.82728233  0.22572025    -0.38200
N1314       N  0.88191597  0.65951804  0.25810691    -0.38200
N1315       N  0.87186778  0.81848211  0.21200318    -0.37600
N1316       N  0.97558967  0.67013713  0.27206972    -0.37600
C1317       C  0.01194299  0.80455552  0.33424235    -0.04300
C1318       C  0.01026845  0.79077090  0.36455783    -0.01400
C1319       C  0.00855458  0.81015792  0.39147121     0.03600
C1320       C  0.00753649  0.84349884  0.38817983    -0.04300
C1321       C  0.00851210  0.85732127  0.35780247    -0.01400
C1322       C  0.01098293  0.83783913  0.33083575     0.03600
C1323       C  0.00963955  0.75657081  0.36800522     0.38200
C1324       C  0.00717918  0.89147451  0.35444391     0.38200
C1325       C  0.01259905  0.85194743  0.29959570     0.36600
C1326       C  0.00769570  0.79585053  0.42273517     0.36600
N1327       N  0.01398108  0.86318865  0.27465451    -0.38200
N1328       N  0.00691518  0.78472068  0.44776143    -0.38200
N1329       N  0.00616259  0.91875147  0.35178934    -0.37600
N1330       N  0.00889629  0.72930393  0.37076682    -0.37600
C1331       C  0.00580452  0.81910227  0.66413724    -0.04300
C1332       C  0.01008039  0.85220510  0.66542881    -0.01400
C1333       C  0.01087174  0.87010078  0.63716038     0.03600
C1334       C  0.00837083  0.85466279  0.60773790    -0.04300
C1335       C  0.00471971  0.82140797  0.60667535    -0.01400
C1336       C  0.00205709  0.80391816  0.63478330     0.03600
C1337       C  0.01347327  0.86770181  0.69578437     0.38200
C1338       C  0.00584144  0.80488487  0.57668003     0.38200
C1339       C  0.99538374  0.77021328  0.63354754     0.36600
C1340       C  0.01500022  0.90412252  0.63815937     0.36600
N1341       N  0.98959129  0.74345369  0.63269396    -0.38200
N1342       N  0.01832232  0.93130684  0.63886325    -0.38200
N1343       N  0.00779073  0.79153767  0.55292511    -0.37600
N1344       N  0.01610671  0.88000938  0.72006815    -0.37600
C1345       C  0.76367714  0.74463676  0.37394593    -0.04300
C1346       C  0.74032434  0.76360936  0.38936872    -0.01400
C1347       C  0.74301968  0.77079127  0.42202198     0.03600
C1348       C  0.76803013  0.75826845  0.44035662    -0.04300
C1349       C  0.78941761  0.73696743  0.42617840    -0.01400
C1350       C  0.78712869  0.72980311  0.39345249     0.03600
C1351       C  0.71305041  0.77592357  0.37218554     0.38200
C1352       C  0.81471118  0.72322939  0.44522415     0.38200
C1353       C  0.80932535  0.70718791  0.38035453     0.36600
C1354       C  0.72084572  0.79255599  0.43656878     0.36600
N1355       N  0.82697322  0.68890542  0.37018253    -0.38200
N1356       N  0.70332268  0.81004139  0.44819784    -0.38200
N1357       N  0.83493152  0.71226373  0.46033120    -0.37600
N1358       N  0.69114643  0.78572793  0.35870756    -0.37600
C1359       C  0.83602239  0.82616358  0.50353026    -0.04300
C1360       C  0.86421088  0.81003711  0.51153648    -0.01400
C1361       C  0.89311015  0.82621253  0.51205738     0.03600
C1362       C  0.89443485  0.85852048  0.50350098    -0.04300
C1363       C  0.86623237  0.87493962  0.49579767    -0.01400
C1364       C  0.83691014  0.85877705  0.49603606     0.03600
C1365       C  0.86396589  0.77615969  0.51742334     0.38200
C1366       C  0.86761666  0.90810626  0.48707385     0.38200
C1367       C  0.80783724  0.87545849  0.48825896     0.36600
C1368       C  0.92183111  0.80901225  0.52009496     0.36600
N1369       N  0.78461897  0.88882663  0.48211807    -0.38200
N1370       N  0.94446617  0.79487705  0.52651527    -0.38200
N1371       N  0.86881270  0.93459592  0.48007381    -0.37600
N1372       N  0.86448873  0.74911196  0.52177196    -0.37600
C1373       C  0.13676916  0.74249017  0.74166889    -0.04300
C1374       C  0.11740450  0.75213831  0.76736296    -0.01400
C1375       C  0.08438220  0.75732557  0.76301824     0.03600
C1376       C  0.07002854  0.75244886  0.73321092    -0.04300
C1377       C  0.08867761  0.74023965  0.70838561    -0.01400
C1378       C  0.12155473  0.73504008  0.71253772     0.03600
C1379       C  0.13115672  0.75664412  0.79853566     0.38200
C1380       C  0.07421120  0.73422307  0.67772505     0.38200
C1381       C  0.13959729  0.72336221  0.68589446     0.36600
C1382       C  0.06555894  0.76974970  0.78870875     0.36600
N1383       N  0.15381506  0.71390818  0.66460785    -0.38200
N1384       N  0.05052845  0.77979662  0.80914512    -0.38200
N1385       N  0.06297009  0.72965747  0.65312920    -0.37600
N1386       N  0.14189515  0.76014023  0.82353344    -0.37600
C1387       C  0.25842326  0.61970754  0.74707287    -0.04300
C1388       C  0.23057227  0.60410654  0.73637239    -0.01400
C1389       C  0.22673688  0.57120525  0.74123451     0.03600
C1390       C  0.25032273  0.55327364  0.75693866    -0.04300
C1391       C  0.27884344  0.56807843  0.76592380    -0.01400
C1392       C  0.28301875  0.60102203  0.76095958     0.03600
C1393       C  0.20437664  0.62199227  0.72277062     0.38200
C1394       C  0.30300006  0.54978022  0.78244637     0.38200
C1395       C  0.31240896  0.61556881  0.77121906     0.36600
C1396       C  0.19735773  0.55595879  0.73192725     0.36600
N1397       N  0.33581052  0.62704997  0.77969354    -0.38200
N1398       N  0.17391067  0.54375935  0.72472663    -0.38200
N1399       N  0.32218645  0.53518077  0.79572757    -0.37600
N1400       N  0.18336836  0.63619054  0.71207614    -0.37600
C1401       C  0.38590467  0.73689104  0.74912992    -0.04300
C1402       C  0.40247064  0.72069631  0.77393219    -0.01400
C1403       C  0.43567235  0.72368881  0.77722987     0.03600
C1404       C  0.45284970  0.74275505  0.75622548    -0.04300
C1405       C  0.43764131  0.75461904  0.72893798    -0.01400
C1406       C  0.40439513  0.75169483  0.72520422     0.03600
C1407       C  0.38590590  0.70163221  0.79701508     0.38200
C1408       C  0.45635150  0.77018547  0.70489100     0.38200
C1409       C  0.38966567  0.76403687  0.69659380     0.36600
C1410       C  0.45241538  0.70772931  0.80284430     0.36600
N1411       N  0.37809983  0.77387868  0.67366658    -0.38200
N1412       N  0.46594905  0.69476482  0.82298676    -0.38200
N1413       N  0.47132523  0.78217168  0.68546002    -0.37600
N1414       N  0.37309441  0.68618045  0.81554745    -0.37600
C1415       C  0.26282784  0.75467475  0.62210785    -0.04300
C1416       C  0.24617971  0.73350981  0.60161907    -0.01400
C1417       C  0.24465125  0.73902974  0.56847174     0.03600
C1418       C  0.25776331  0.76660649  0.55517652    -0.04300
C1419       C  0.27530528  0.78706184  0.57480010    -0.01400
C1420       C  0.27877670  0.78075574  0.60763432     0.03600
C1421       C  0.22966219  0.70620957  0.61411306     0.38200
C1422       C  0.28959299  0.81509614  0.56103743     0.38200
C1423       C  0.29865708  0.80186605  0.62602601     0.36600
C1424       C  0.22856643  0.71671593  0.54789626     0.36600
N1425       N  0.31490505  0.81867073  0.64032366    -0.38200
N1426       N  0.21614938  0.69886611  0.53124471    -0.38200
N1427       N  0.30094338  0.83744699  0.55006032    -0.37600
N1428       N  0.21605885  0.68450310  0.62371212    -0.37600
C1429       C  0.25543512  0.74047212  0.87372111    -0.04300
C1430       C  0.23127528  0.75776490  0.88981298    -0.01400
C1431       C  0.22570273  0.75290513  0.92252391     0.03600
C1432       C  0.24411170  0.73125680  0.94019588    -0.04300
C1433       C  0.26967612  0.71596692  0.92537489    -0.01400
C1434       C  0.27562154  0.72068470  0.89264285     0.03600
C1435       C  0.21115056  0.78027535  0.87315255     0.38200
C1436       C  0.28921646  0.69423227  0.94375110     0.38200
C1437       C  0.30248614  0.70446795  0.87894000     0.36600
C1438       C  0.19985156  0.76929908  0.93798247     0.36600
N1439       N  0.32406273  0.69133520  0.86847277    -0.38200
N1440       N  0.17926160  0.78227119  0.95041841    -0.38200
N1441       N  0.30478778  0.67691444  0.95842065    -0.37600
N1442       N  0.19492703  0.79834502  0.86019897    -0.37600
C1443       C  0.26230781  0.86749609  0.75487352    -0.04300
C1444       C  0.26701881  0.88763743  0.72840143    -0.01400
C1445       C  0.27058394  0.92081467  0.73244086     0.03600
C1446       C  0.26835618  0.93439250  0.76282941    -0.04300
C1447       C  0.26099181  0.91457336  0.78880956    -0.01400
C1448       C  0.25870489  0.88143945  0.78505481     0.03600
C1449       C  0.26757887  0.87443573  0.69683107     0.38200
C1450       C  0.25622571  0.92826577  0.81987582     0.38200
C1451       C  0.25456607  0.86168841  0.81288806     0.36600
C1452       C  0.27823687  0.94067578  0.70555076     0.36600
N1453       N  0.25143805  0.84601851  0.83514367    -0.38200
N1454       N  0.28444158  0.95653927  0.68412211    -0.38200
N1455       N  0.25236186  0.93902430  0.84468135    -0.37600
N1456       N  0.26764209  0.86415055  0.67150919    -0.37600
C1457       C  0.63740600  0.73940554  0.75473563    -0.04300
C1458       C  0.62380256  0.73276229  0.78445987    -0.01400
C1459       C  0.59095347  0.73676850  0.78906928     0.03600
C1460       C  0.57126197  0.74761039  0.76410050    -0.04300
C1461       C  0.58442564  0.75212463  0.73380217    -0.01400
C1462       C  0.61736310  0.74778844  0.72907602     0.03600
C1463       C  0.64368519  0.72176629  0.81042923     0.38200
C1464       C  0.56447934  0.76316951  0.70797148     0.38200
C1465       C  0.63086119  0.75364858  0.69821501     0.36600
C1466       C  0.57734785  0.73021288  0.81980355     0.36600
N1467       N  0.64164339  0.75821908  0.67355778    -0.38200
N1468       N  0.56635617  0.72496230  0.84423784    -0.38200
N1469       N  0.54864116  0.77205339  0.68730712    -0.37600
N1470       N  0.65953066  0.71289158  0.83109999    -0.37600
C1471       C  0.76076527  0.61572895  0.74703173    -0.04300
C1472       C  0.73808219  0.59852408  0.72873083    -0.01400
C1473       C  0.73350912  0.56562866  0.73378914     0.03600
C1474       C  0.75175210  0.54901155  0.75642602    -0.04300
C1475       C  0.77647613  0.56489115  0.77215853    -0.01400
C1476       C  0.78122781  0.59781393  0.76746779     0.03600
C1477       C  0.71847922  0.61424333  0.70509291     0.38200
C1478       C  0.79588140  0.54754995  0.79485318     0.38200
C1479       C  0.80697902  0.61280658  0.78460536     0.36600
C1480       C  0.70888888  0.54887957  0.71657751     0.36600
N1481       N  0.82758236  0.62449777  0.79842891    -0.38200
N1482       N  0.68928344  0.53546315  0.70289864    -0.38200
N1483       N  0.81128604  0.53366064  0.81294372    -0.37600
N1484       N  0.70274130  0.62651610  0.68613154    -0.37600
C1485       C  0.75716198  0.74871367  0.62529473    -0.04300
C1486       C  0.73644581  0.77069205  0.61046823    -0.01400
C1487       C  0.73851936  0.77660609  0.57749138     0.03600
C1488       C  0.76094002  0.76024564  0.55898187    -0.04300
C1489       C  0.77945664  0.73620717  0.57339295    -0.01400
C1490       C  0.77815129  0.73100182  0.60644549     0.03600
C1491       C  0.71405630  0.78833749  0.62940238     0.38200
C1492       C  0.80040430  0.71717056  0.55421668     0.38200
C1493       C  0.79954706  0.70845038  0.62134674     0.36600
C1494       C  0.71804808  0.80001564  0.56262630     0.36600
N1495       N  0.81678358  0.69068324  0.63336306    -0.38200
N1496       N  0.70152027  0.81852123  0.55072130    -0.38200
N1497       N  0.81671327  0.70144054  0.53896805    -0.37600
N1498       N  0.69621485  0.80248576  0.64449477    -0.37600
C1499       C  0.75813295  0.73453831  0.87408273    -0.04300
C1500       C  0.76762168  0.70619147  0.88993008    -0.01400
C1501       C  0.76278637  0.70245063  0.92281817     0.03600
C1502       C  0.74813427  0.72652485  0.94063400    -0.04300
C1503       C  0.74021433  0.75533325  0.92566861    -0.01400
C1504       C  0.74502282  0.75941965  0.89272569     0.03600
C1505       C  0.78038451  0.67955709  0.87247887     0.38200
C1506       C  0.72537192  0.78021971  0.94399330     0.38200
C1507       C  0.73523049  0.78912031  0.87829937     0.36600
C1508       C  0.77206669  0.67306874  0.93830810     0.36600
N1509       N  0.72688502  0.81278889  0.86708582    -0.38200
N1510       N  0.77961688  0.64958301  0.95041019    -0.38200
N1511       N  0.71354982  0.79999298  0.95871349    -0.37600
N1512       N  0.79042529  0.65811026  0.85878622    -0.37600
C1513       C  0.76221148  0.86493259  0.75383549    -0.04300
C1514       C  0.75648924  0.88454187  0.72710017    -0.01400
C1515       C  0.75348584  0.91782920  0.73071243     0.03600
C1516       C  0.75611152  0.93162753  0.76097087    -0.04300
C1517       C  0.76465773  0.91234201  0.78704399    -0.01400
C1518       C  0.76764054  0.87924722  0.78353626     0.03600
C1519       C  0.75159097  0.87042276  0.69625517     0.38200
C1520       C  0.76948914  0.92662666  0.81787062     0.38200
C1521       C  0.77625839  0.85984430  0.81066433     0.36600
C1522       C  0.74594658  0.93773454  0.70366573     0.36600
N1523       N  0.78326072  0.84430647  0.83221297    -0.38200
N1524       N  0.74008321  0.95378336  0.68215112    -0.38200
N1525       N  0.77339113  0.93807339  0.84241348    -0.37600
N1526       N  0.74760342  0.85927211  0.67158473    -0.37600
C1527       C  0.88531462  0.74582171  0.75355874    -0.04300
C1528       C  0.90600492  0.72094566  0.74486190    -0.01400
C1529       C  0.93872760  0.72700249  0.74011200     0.03600
C1530       C  0.95095283  0.75787492  0.74443896    -0.04300
C1531       C  0.93069759  0.78175757  0.75628413    -0.01400
C1532       C  0.89832850  0.77553819  0.76145918     0.03600
C1533       C  0.89342851  0.68949653  0.73957940     0.38200
C1534       C  0.94281625  0.81346350  0.76148800     0.38200
C1535       C  0.87832953  0.79969946  0.77536836     0.36600
C1536       C  0.95917709  0.70216725  0.72829061     0.36600
N1537       N  0.86245401  0.81873576  0.78694394    -0.38200
N1538       N  0.97549794  0.68237356  0.71874309    -0.38200
N1539       N  0.95243760  0.83882556  0.76519122    -0.37600
N1540       N  0.88340405  0.66432101  0.73566121    -0.37600
loop_ 
_geom_bond_atom_site_label_1 
_geom_bond_atom_site_label_2 
_geom_bond_distance 
_geom_bond_site_symmetry_2 
_ccdc_geom_bond_type 
Zn1           O5   1.971       .  S
Zn1           O6   2.024       .  S
Zn1          O10   2.038       .  S
Zn1          O17   2.034       .  S
Zn2           O5   1.989       .  S
Zn2           O7   2.059       .  S
Zn2           O9   2.057       .  S
Zn2          O13   2.058       .  S
Zn3           O5   1.976       .  S
Zn3           O8   2.041       .  S
Zn3          O11   2.045       .  S
Zn3          O14   2.046       .  S
Zn4           O5   1.986       .  S
Zn4          O12   2.058       .  S
Zn4          O15   2.044       .  S
Zn4          O16   2.053       .  S
O6           C18   1.275       .  A
O7           C19   1.278       .  A
O8           C20   1.275       .  A
O9           C18   1.277       .  A
O10          C20   1.277       .  A
O11          C19   1.277       .  A
O12          C21   1.277       .  A
O13          C22   1.279       .  A
O14          C21   1.278       .  A
O15          C22   1.277       .  A
O16          C23   1.278       .  A
O17          C23   1.274       .  A
C18        C1457   1.495       .  S
C19        C1485   1.495       .  S
C20        C1513   1.496       .  S
C21        C1527   1.499       .  S
C22        C1471   1.527       .  S
C23        C1499   1.519       .  S
Zn24         O28   1.976       .  S
Zn24         O29   2.071       .  S
Zn24         O33   2.048       .  S
Zn24         O40   2.043       .  S
Zn25         O28   1.980       .  S
Zn25         O30   2.054       .  S
Zn25         O32   2.047       .  S
Zn25         O36   2.052       .  S
Zn26         O28   1.974       .  S
Zn26         O31   2.047       .  S
Zn26         O34   2.033       .  S
Zn26         O37   2.052       .  S
Zn27         O28   1.978       .  S
Zn27         O35   2.068       .  S
Zn27         O38   2.039       .  S
Zn27         O39   2.031       .  S
O29          C41   1.279       .  A
O30          C42   1.278       .  A
O31          C43   1.277       .  A
O32          C41   1.276       .  A
O33          C43   1.278       .  A
O34          C42   1.277       .  A
O35          C44   1.278       .  A
O36          C45   1.278       .  A
O37          C44   1.277       .  A
O38          C45   1.277       .  A
O39          C46   1.276       .  A
O40          C46   1.278       .  A
C41        C1415   1.531       .  S
C42        C1443   1.503       .  S
C43        C1373   1.517       .  S
C44        C1429   1.533       .  S
C45        C1401   1.520       .  S
C46        C1387   1.510       .  S
C47        C1348   1.495       .  S
C47          N48   1.357       .  A
C47          N52   1.371       .  A
N48          C49   1.354       .  A
C49        C1359   1.476       .  S
C49          N50   1.354       .  A
N50          C51   1.357       .  A
C51        C1488   1.494       .  S
C51          N52   1.371       .  A
C53        C1530   1.497       .  S
C53          N54   1.374   1_655  A
C53          N58   1.357       .  A
N54          C55   1.373       .  A
C55        C1376   1.499       .  S
C55          N56   1.356       .  A
N56          C57   1.350       .  A
C57        C1331   1.471       .  S
C57          N58   1.350   1_455  A
C59        C1303   1.491       .  S
C59          N60   1.356       .  A
C59          N64   1.369   1_655  A
N60          C61   1.350   1_655  A
C61        C1317   1.476       .  S
C61          N62   1.355       .  A
N62          C63   1.360       .  A
C63        C1289   1.493       .  S
C63          N64   1.370       .  A
N65          C70   1.356       .  A
N65          C69   1.357       .  A
N65          H97   1.037       .  S
N66          C73   1.351       .  A
N66          C74   1.350       .  A
N67          C72   1.355       .  A
N67          C71   1.354       .  A
N67          H98   1.034       .  S
N68          C75   1.351       .  A
N68          C76   1.352       .  A
C69          C77   1.388       .  A
C69          C85   1.420       .  A
C70          C86   1.419   1_655  A
C70          C78   1.387       .  A
C71          C79   1.386       .  A
C71          C88   1.416       .  A
C72          C87   1.421       .  A
C72          C80   1.389       .  A
C73          C85   1.413       .  A
C73          C81   1.386       .  A
C74          C88   1.411   1_655  A
C74          C82   1.386       .  A
C75          C83   1.386       .  A
C75          C86   1.412       .  A
C76          C84   1.386       .  A
C76          C87   1.414       .  A
C77          C78   1.369       .  A
C77          H89   1.082       .  S
C78          H90   1.082       .  S
C79          C80   1.369       .  A
C79          H91   1.082       .  S
C80          H92   1.082       .  S
C81          C82   1.371       .  A
C81          H93   1.083       .  S
C82          H94   1.082       .  S
C83          C84   1.368       .  A
C83          H95   1.082       .  S
C84          H96   1.082       .  S
C85        C1362   1.497       .  S
C86        C1320   1.496       .  S
C87        C1275   1.498       .  S
C88        C1334   1.493       .  S
C99        C1418   1.496       .  S
C99         N100   1.371       .  A
C99         N104   1.357       .  A
N100        C101   1.371       .  A
C101       C1261   1.503       .  S
C101        N102   1.359       .  A
N102        C103   1.353       .  A
C103       C1278   1.477       .  S
C103        N104   1.354       .  A
Zn105       O109   1.969       .  S
Zn105       O110   2.024       .  S
Zn105       O114   2.008       .  S
Zn105       O121   2.023       .  S
Zn106       O109   1.977       .  S
Zn106       O111   2.038       .  S
Zn106       O113   2.035       .  S
Zn106       O117   2.038       .  S
Zn107       O109   2.003       .  S
Zn107       O112   2.079       .  S
Zn107       O115   2.081       .  S
Zn107       O118   2.063       .  S
Zn108       O109   1.983       .  S
Zn108       O116   2.046       .  S
Zn108       O119   2.061       .  S
Zn108       O120   2.067       .  S
O110        C122   1.272       .  A
O111        C123   1.277       .  A
O112        C124   1.280       .  A
O113        C122   1.277       .  A
O114        C124   1.274       .  A
O115        C123   1.281       .  A
O116        C125   1.279       .  A
O117        C126   1.274       .  A
O118        C125   1.279       .  A
O119        C126   1.280       .  A
O120        C127   1.277       .  A
O121        C127   1.273       .  A
C122       C1247   1.492       .  S
C123       C1219   1.502       .  S
C124       C1264   1.502       .  S
C125       C1233   1.494       .  S
C126       C1205   1.502       .  S
C127       C1292   1.496       .  S
Zn128       O132   1.980       .  S
Zn128       O133   2.020       .  S
Zn128       O137   2.044       .  S
Zn128       O144   2.042       .  S
Zn129       O132   1.989       .  S
Zn129       O134   2.081       .  S
Zn129       O136   2.074       .  S
Zn129       O140   2.065       .  S
Zn130       O132   1.972       .  S
Zn130       O135   2.042       .  S
Zn130       O138   2.025       .  S
Zn130       O141   2.042       .  S
Zn131       O132   1.973       .  S
Zn131       O139   2.044       .  S
Zn131       O142   2.037       .  S
Zn131       O143   2.035       .  S
O133        C145   1.274       .  A
O134        C146   1.282       .  A
O135        C147   1.276       .  A
O136        C145   1.282       .  A
O137        C147   1.276       .  A
O138        C146   1.274       .  A
O139        C148   1.276       .  A
O140        C149   1.279       .  A
O141        C148   1.277       .  A
O142        C149   1.276       .  A
O143        C150   1.275       .  A
O144        C150   1.275       .  A
C145       C1306   1.510       .  S
C146       C1345   1.528       .  S
C147       C1191   1.518       .  S
C148       C1163   1.511       .  S
C149       C1177   1.494       .  S
C150       C1149   1.490       .  S
C151       C1502   1.492       .  S
C151        N152   1.356       .  A
C151        N156   1.371       .  A
N152        C153   1.351   1_556  A
C153       C1135   1.469       .  S
C153        N154   1.351       .  A
N154        C155   1.356       .  A
C155       C1152   1.491       .  S
C155        N156   1.371   1_554  A
C157       C1107   1.499       .  S
C157        N158   1.356       .  A
C157        N162   1.372       .  A
N158        C159   1.351       .  A
C159       C1121   1.469       .  S
C159        N160   1.350       .  A
N160        C161   1.355       .  A
C161       C1474   1.491       .  S
C161        N162   1.371       .  A
C163       C1079   1.485       .  S
C163        N164   1.354       .  A
C163        N168   1.369   1_556  A
N164        C165   1.349       .  A
C165       C1093   1.468       .  S
C165        N166   1.349   1_556  A
N166        C167   1.356       .  A
C167       C1065   1.491       .  S
C167        N168   1.370       .  A
N169        C174   1.355       .  A
N169        C173   1.356       .  A
N169        H201   1.032       .  S
N170        C177   1.348       .  A
N170        C178   1.351       .  A
N171        C176   1.349       .  A
N171        C175   1.350       .  A
N171        H202   1.032       .  S
N172        C179   1.350       .  A
N172        C180   1.353       .  A
C173        C181   1.387       .  A
C173        C189   1.421       .  A
C174        C190   1.420       .  A
C174        C182   1.388       .  A
C175        C183   1.386       .  A
C175        C192   1.411       .  A
C176        C191   1.412   1_554  A
C176        C184   1.387       .  A
C177        C189   1.415   1_554  A
C177        C185   1.390       .  A
C178        C192   1.411       .  A
C178        C186   1.384       .  A
C179        C187   1.388       .  A
C179        C190   1.418       .  A
C180        C188   1.385       .  A
C180        C191   1.415       .  A
C181        C182   1.367       .  A
C181        H193   1.082       .  S
C182        H194   1.082       .  S
C183        C184   1.374       .  A
C183        H195   1.082       .  S
C184        H196   1.083       .  S
C185        C186   1.367       .  A
C185        H197   1.082       .  S
C186        H198   1.082       .  S
C187        C188   1.369       .  A
C187        H199   1.083       .  S
C188        H200   1.082       .  S
C189       C1096   1.492       .  S
C190       C1124   1.494       .  S
C191       C1138   1.492       .  S
C192       C1051   1.490       .  S
C203       C1180   1.493       .  S
C203        N204   1.357       .  A
C203        N208   1.372       .  A
N204        C205   1.353       .  A
C205       C1054   1.474       .  S
C205        N206   1.350       .  A
N206        C207   1.356       .  A
C207       C1040   1.497       .  S
C207        N208   1.372       .  A
Zn209       O213   1.969       .  S
Zn209       O214   2.031       .  S
Zn209       O218   2.033       .  S
Zn209       O225   2.035       .  S
Zn210       O213   1.981       .  S
Zn210       O215   2.049       .  S
Zn210       O217   2.040       .  S
Zn210       O221   2.050       .  S
Zn211       O213   1.975       .  S
Zn211       O216   2.035       .  S
Zn211       O219   2.043       .  S
Zn211       O222   2.059       .  S
Zn212       O213   1.973       .  S
Zn212       O220   2.030       .  S
Zn212       O223   2.022       .  S
Zn212       O224   2.045       .  S
O214        C226   1.276       .  A
O215        C227   1.277       .  A
O216        C228   1.276       .  A
O217        C226   1.276       .  A
O218        C228   1.274       .  A
O219        C227   1.276       .  A
O220        C229   1.276       .  A
O221        C230   1.278       .  A
O222        C229   1.279       .  A
O223        C230   1.274       .  A
O224        C231   1.274       .  A
O225        C231   1.275       .  A
C226        C984   1.486       .  S
C227       C1023   1.523       .  S
C228       C1068   1.511       .  S
C229       C1037   1.509       .  S
C230        C995   1.507       .  S
C231       C1009   1.493       .  S
Zn232       O236   1.983       .  S
Zn232       O237   2.067       .  S
Zn232       O241   2.078       .  S
Zn232       O248   2.054       .  S
Zn233       O236   1.970       .  S
Zn233       O238   2.031       .  S
Zn233       O240   2.009       .  S
Zn233       O244   2.027       .  S
Zn234       O236   1.966       .  S
Zn234       O239   2.026       .  S
Zn234       O242   2.034       .  S
Zn234       O245   2.036       .  S
Zn235       O236   1.983       .  S
Zn235       O243   2.054       .  S
Zn235       O246   2.045       .  S
Zn235       O247   2.046       .  S
O237        C249   1.279       .  A
O238        C250   1.273       .  A
O239        C251   1.275       .  A
O240        C249   1.273       .  A
O241        C251   1.281       .  A
O242        C250   1.276       .  A
O243        C252   1.279       .  A
O244        C253   1.274       .  A
O245        C252   1.276       .  A
O246        C253   1.275       .  A
O247        C254   1.277       .  A
O248        C254   1.279       .  A
C249        C925   1.489       .  S
C250       C1082   1.514       .  S
C251        C967   1.517       .  S
C252       C1110   1.509       .  S
C253        C953   1.487       .  S
C254        C939   1.515       .  S
C255       C1516   1.488       .  S
C255        N256   1.354       .  A
C255        N260   1.369       .  A
N256        C257   1.349       .  A
C257        C911   1.472       .  S
C257        N258   1.352   1_565  A
N258        C259   1.357       .  A
C259        C928   1.487       .  S
C259        N260   1.370   1_545  A
C261       C1404   1.486       .  S
C261        N262   1.368       .  A
C261        N266   1.357       .  A
N262        C263   1.369       .  A
C263       C1460   1.492       .  S
C263        N264   1.359       .  A
N264        C265   1.353       .  A
C265        C897   1.477       .  S
C265        N266   1.352       .  A
C267        C869   1.484       .  S
C267        N268   1.371   1_545  A
C267        N272   1.354       .  A
N268        C269   1.372       .  A
C269       C1446   1.496       .  S
C269        N270   1.356       .  A
N270        C271   1.349   1_565  A
C271        C883   1.464       .  S
C271        N272   1.347       .  A
N273        C278   1.356       .  A
N273        C277   1.352       .  A
N273        H305   1.038       .  S
N274        C281   1.348       .  A
N274        C282   1.351       .  A
N275        C280   1.352       .  A
N275        C279   1.355       .  A
N275        H306   1.040       .  S
N276        C283   1.351       .  A
N276        C284   1.350       .  A
C277        C285   1.389       .  A
C277        C293   1.416       .  A
C278        C294   1.414       .  A
C278        C286   1.386       .  A
C279        C287   1.387       .  A
C279        C296   1.414       .  A
C280        C295   1.412   1_545  A
C280        C288   1.387       .  A
C281        C293   1.408   1_545  A
C281        C289   1.386       .  A
C282        C296   1.411       .  A
C282        C290   1.385       .  A
C283        C291   1.385       .  A
C283        C294   1.410       .  A
C284        C292   1.386       .  A
C284        C295   1.411       .  A
C285        C286   1.368       .  A
C285        H297   1.083       .  S
C286        H298   1.082       .  S
C287        C288   1.368       .  A
C287        H299   1.082       .  S
C288        H300   1.082       .  S
C289        C290   1.373       .  A
C289        H301   1.082       .  S
C290        H302   1.082       .  S
C291        C292   1.372       .  A
C291        H303   1.082       .  S
C292        H304   1.082       .  S
C293        C886   1.487   1_565  S
C294        C900   1.497       .  S
C295        C914   1.490       .  S
C296        C855   1.497       .  S
C307        C841   1.480       .  S
C307        N308   1.365       .  A
C307        N312   1.351       .  A
N308        C309   1.367       .  A
C309        C956   1.486       .  S
C309        N310   1.361       .  A
N310        C311   1.356       .  A
C311        C858   1.483       .  S
C311        N312   1.350       .  A
Zn313       O317   1.989       .  S
Zn313       O318   2.063       .  S
Zn313       O322   2.032       .  S
Zn313       O329   2.067       .  S
Zn314       O317   1.966       .  S
Zn314       O319   2.019       .  S
Zn314       O321   2.002       .  S
Zn314       O325   2.040       .  S
Zn315       O317   1.972       .  S
Zn315       O320   2.055       .  S
Zn315       O323   2.048       .  S
Zn315       O326   2.061       .  S
Zn316       O317   1.958       .  S
Zn316       O324   2.038       .  S
Zn316       O327   2.034       .  S
Zn316       O328   2.013       .  S
O318        C330   1.278       .  A
O319        C331   1.272       .  A
O320        C332   1.280       .  A
O321        C330   1.271       .  A
O322        C332   1.276       .  A
O323        C331   1.277       .  A
O324        C333   1.274       .  A
O325        C334   1.276       .  A
O326        C333   1.278       .  A
O327        C334   1.276       .  A
O328        C335   1.273       .  A
O329        C335   1.279       .  A
C330        C844   1.519       .  S
C331        C813   1.517       .  S
C332        C799   1.494       .  S
C333        C785   1.496       .  S
C334        C827   1.507       .  S
C335        C872   1.518       .  S
C336       C1208   1.497       .  S
C336        N337   1.373   1_554  A
C336        N341   1.352       .  A
N337        C338   1.374       .  A
C338       C1432   1.496       .  S
C338        N339   1.359       .  A
N339        C340   1.353       .  A
C340        C771   1.467       .  S
C340        N341   1.346   1_556  A
C342        C816   1.492       .  S
C342        N343   1.357       .  A
C342        N347   1.370       .  A
N343        C344   1.352       .  A
C344        C757   1.475       .  S
C344        N345   1.350       .  A
N345        C346   1.354       .  A
C346       C1390   1.486       .  S
C346        N347   1.369       .  A
C348        C830   1.493       .  S
C348        N349   1.373       .  A
C348        N353   1.357       .  A
N349        C350   1.372   1_556  A
C350        C729   1.486       .  S
C350        N351   1.350       .  A
N351        C352   1.345   1_554  A
C352        C743   1.462   1_556  S
C352        N353   1.350       .  A
N354        C359   1.351       .  A
N354        C358   1.354       .  A
N354        H386   1.039       .  S
N355        C362   1.349       .  A
N355        C363   1.347       .  A
N356        C361   1.355       .  A
N356        C360   1.354       .  A
N356        H387   1.039       .  S
N357        C364   1.350       .  A
N357        C365   1.351       .  A
C358        C366   1.387       .  A
C358        C374   1.413       .  A
C359        C375   1.413   1_556  A
C359        C367   1.389       .  A
C360        C368   1.387       .  A
C360        C377   1.416       .  A
C361        C376   1.415       .  A
C361        C369   1.387       .  A
C362        C374   1.406       .  A
C362        C370   1.383       .  A
C363        C377   1.407   1_556  A
C363        C371   1.388       .  A
C364        C372   1.386       .  A
C364        C375   1.410       .  A
C365        C373   1.386       .  A
C365        C376   1.410       .  A
C366        C367   1.367       .  A
C366        H378   1.082       .  S
C367        H379   1.082       .  S
C368        C369   1.370       .  A
C368        H380   1.082       .  S
C369        H381   1.082       .  S
C370        C371   1.370       .  A
C370        H382   1.083       .  S
C371        H383   1.081       .  S
C372        C373   1.372       .  A
C372        H384   1.082       .  S
C373        H385   1.083       .  S
C374        C760   1.495       .  S
C375        C746   1.486       .  S
C376        C715   1.495       .  S
C377        C774   1.490       .  S
C388       C1236   1.489       .  S
C388        N389   1.370       .  A
C388        N393   1.357       .  A
N389        C390   1.370       .  A
C390        C701   1.489       .  S
C390        N391   1.356       .  A
N391        C392   1.352       .  A
C392        C718   1.474       .  S
C392        N393   1.352       .  A
C394       C1166   1.501       .  S
C394        N395   1.357       .  A
C394        N399   1.374       .  A
N395        C396   1.350       .  A
C396        C687   1.470       .  S
C396        N397   1.351       .  A
N397        C398   1.356       .  A
C398       C1222   1.497       .  S
C398        N399   1.373       .  A
C400       C1194   1.486       .  S
C400        N401   1.368       .  A
C400        N405   1.356       .  A
N401        C402   1.368   1_565  A
C402        C981   1.485       .  S
C402        N403   1.356       .  A
N403        C404   1.352   1_545  A
C404        C673   1.475       .  S
C404        N405   1.351       .  A
C406        C645   1.486       .  S
C406        N407   1.372   1_545  A
C406        N411   1.355       .  A
N407        C408   1.372       .  A
C408       C1250   1.494       .  S
C408        N409   1.355       .  A
N409        C410   1.348       .  A
C410        C662   1.465       .  S
C410        N411   1.348   1_565  A
N412        C417   1.354       .  A
N412        C416   1.353       .  A
N412        H444   1.040       .  S
N413        C420   1.350       .  A
N413        C421   1.350       .  A
N414        C419   1.353       .  A
N414        C418   1.352       .  A
N414        H445   1.038       .  S
N415        C422   1.348       .  A
N415        C423   1.349       .  A
C416        C424   1.388       .  A
C416        C432   1.415       .  A
C417        C433   1.413       .  A
C417        C425   1.386       .  A
C418        C426   1.388       .  A
C418        C435   1.413   1_545  A
C419        C434   1.413       .  A
C419        C427   1.387       .  A
C420        C432   1.410       .  A
C420        C428   1.386       .  A
C421        C435   1.409       .  A
C421        C429   1.385       .  A
C422        C430   1.386       .  A
C422        C433   1.408   1_545  A
C423        C431   1.386       .  A
C423        C434   1.407       .  A
C424        C425   1.370       .  A
C424        H436   1.082       .  S
C425        H437   1.082       .  S
C426        C427   1.367       .  A
C426        H438   1.082       .  S
C427        H439   1.082       .  S
C428        C429   1.372       .  A
C428        H440   1.082       .  S
C429        H441   1.082       .  S
C430        C431   1.371       .  A
C430        H442   1.083       .  S
C431        H443   1.081       .  S
C432        C690   1.490       .  S
C433        C676   1.494       .  S
C434        C631   1.491       .  S
C435        C659   1.488       .  S
C446       C1012   1.489       .  S
C446        N447   1.357       .  A
C446        N451   1.370       .  A
N447        C448   1.350       .  A
C448        C634   1.471       .  S
C448        N449   1.351       .  A
N449        C450   1.355       .  A
C450        C617   1.488       .  S
C450        N451   1.370       .  A
C452        C998   1.484       .  S
C452        N453   1.369       .  A
C452        N457   1.353       .  A
N453        C454   1.370       .  A
C454        C942   1.488       .  S
C454        N455   1.357       .  A
N455        C456   1.352       .  A
C456        C603   1.468       .  S
C456        N457   1.348       .  A
C458        C788   1.495       .  S
C458        N459   1.355       .  A
C458        N463   1.373       .  A
N459        C460   1.350       .  A
C460        C589   1.474       .  S
C460        N461   1.352   1_455  A
N461        C462   1.358       .  A
C462        C970   1.497       .  S
C462        N463   1.374   1_655  A
C464        C561   1.481       .  S
C464        N465   1.366       .  A
C464        N469   1.354       .  A
N465        C466   1.368   1_455  A
C466       C1026   1.489       .  S
C466        N467   1.360       .  A
N467        C468   1.357   1_655  A
C468        C575   1.484       .  S
C468        N469   1.351       .  A
N470        C475   1.346       .  A
N470        C474   1.351       .  A
N470        H502   1.044       .  S
N471        C478   1.354       .  A
N471        C479   1.351       .  A
N472        C477   1.349       .  A
N472        C476   1.346       .  A
N472        H503   1.044   1_655  S
N473        C480   1.351       .  A
N473        C481   1.354       .  A
C474        C482   1.386       .  A
C474        C490   1.414       .  A
C475        C491   1.410       .  A
C475        C483   1.388       .  A
C476        C484   1.389       .  A
C476        C493   1.411       .  A
C477        C492   1.409   1_655  A
C477        C485   1.385       .  A
C478        C490   1.416   1_655  A
C478        C486   1.387       .  A
C479        C493   1.415       .  A
C479        C487   1.386       .  A
C480        C488   1.387       .  A
C480        C491   1.415       .  A
C481        C489   1.385       .  A
C481        C492   1.413       .  A
C482        C483   1.378       .  A
C482        H494   1.083       .  S
C483        H495   1.082       .  S
C484        C485   1.374       .  A
C484        H496   1.081       .  S
C485        H497   1.083       .  S
C486        C487   1.370       .  A
C486        H498   1.082       .  S
C487        H499   1.082       .  S
C488        C489   1.371       .  A
C488        H500   1.082       .  S
C489        H501   1.082       .  S
C490        C578   1.501       .  S
C491        C547   1.485       .  S
C492        C592   1.494       .  S
C493        C606   1.486       .  S
C504        C802   1.489       .  S
C504        N505   1.353       .  A
C504        N509   1.372       .  A
N505        C506   1.347       .  A
C506        C550   1.466       .  S
C506        N507   1.350       .  A
N507        C508   1.356       .  A
C508        C533   1.490       .  S
C508        N509   1.373       .  A
Zn510       O514   1.959       .  S
Zn510       O515   2.012       .  S
Zn510       O519   2.021       .  S
Zn510       O526   2.003       .  S
Zn511       O514   1.983       .  S
Zn511       O516   2.062       .  S
Zn511       O518   2.080       .  S
Zn511       O522   2.050       .  S
Zn512       O514   1.963       .  S
Zn512       O517   2.043       .  S
Zn512       O520   2.028       .  S
Zn512       O523   2.027       .  S
Zn513       O514   1.973       .  S
Zn513       O521   2.055       .  S
Zn513       O524   2.032       .  S
Zn513       O525   2.073       .  S
O515        C527   1.272       .  A
O516        C528   1.280       .  A
O517        C529   1.277       .  A
O518        C527   1.282       .  A
O519        C529   1.272       .  A
O520        C528   1.274       .  A
O521        C530   1.277       .  A
O522        C531   1.277       .  A
O523        C530   1.274       .  A
O524        C531   1.277       .  A
O525        C532   1.280       .  A
O526        C532   1.271       .  A
C527        C732   1.517       .  S
C528        C704   1.519       .  S
C529        C564   1.485       .  S
C530        C536   1.491       .  S
C531        C620   1.523       .  S
C532        C648   1.521       .  S
C533        C534   1.413       .  A
C533        C538   1.413       .  A
C534        C535   1.416       .  A
C534        C539   1.450       .  S
C535        C536   1.411       .  A
C535        C542   1.449       .  S
C536        C537   1.414       .  A
C537        C538   1.416       .  A
C537        C540   1.451       .  S
C538        C541   1.450       .  S
C539        N546   1.157       .  T
C540        N545   1.158       .  T
C541        N543   1.157       .  T
C542        N544   1.157       .  T
C547        C548   1.414       .  A
C547        C552   1.408       .  A
C548        C549   1.403       .  A
C548        C553   1.453       .  S
C549        C550   1.408       .  A
C549        C556   1.452       .  S
C550        C551   1.410       .  A
C551        C552   1.409       .  A
C551        C554   1.450       .  S
C552        C555   1.449       .  S
C553        N560   1.158       .  T
C554        N559   1.157       .  T
C555        N557   1.157       .  T
C556        N558   1.157       .  T
C561        C562   1.411       .  A
C561        C566   1.411       .  A
C562        C563   1.414       .  A
C562        C567   1.450       .  S
C563        C564   1.412       .  A
C563        C570   1.450       .  S
C564        C565   1.411       .  A
C565        C566   1.411       .  A
C565        C568   1.450       .  S
C566        C569   1.450       .  S
C567        N574   1.157       .  T
C568        N573   1.157       .  T
C569        N571   1.157       .  T
C570        N572   1.157       .  T
C575        C576   1.413       .  A
C575        C580   1.412       .  A
C576        C577   1.406       .  A
C576        C581   1.452       .  S
C577        C578   1.415       .  A
C577        C584   1.450       .  S
C578        C579   1.414       .  A
C579        C580   1.414       .  A
C579        C582   1.449   1_455  S
C580        C583   1.450   1_455  S
C581        N588   1.157       .  T
C582        N587   1.157       .  T
C583        N585   1.157       .  T
C584        N586   1.156       .  T
C589        C590   1.409       .  A
C589        C594   1.411       .  A
C590        C591   1.405       .  A
C590        C595   1.453   1_455  S
C591        C592   1.414       .  A
C591        C598   1.451       .  S
C592        C593   1.411       .  A
C593        C594   1.414       .  A
C593        C596   1.448       .  S
C594        C597   1.450       .  S
C595        N602   1.157       .  T
C596        N601   1.157       .  T
C597        N599   1.157       .  T
C598        N600   1.157       .  T
C603        C604   1.408       .  A
C603        C608   1.411       .  A
C604        C605   1.405       .  A
C604        C609   1.451       .  S
C605        C606   1.414       .  A
C605        C612   1.453       .  S
C606        C607   1.408       .  A
C607        C608   1.408       .  A
C607        C610   1.450       .  S
C608        C611   1.450       .  S
C609        N616   1.157       .  T
C610        N615   1.157       .  T
C611        N613   1.157       .  T
C612        N614   1.157       .  T
C617        C618   1.407       .  A
C617        C622   1.407       .  A
C618        C619   1.415       .  A
C618        C623   1.452       .  S
C619        C620   1.429       .  A
C619        C626   1.452       .  S
C620        C621   1.430       .  A
C621        C622   1.419       .  A
C621        C624   1.450       .  S
C622        C625   1.451       .  S
C623        N630   1.157       .  T
C624        N629   1.157       .  T
C625        N627   1.157       .  T
C626        N628   1.158       .  T
C631        C632   1.409       .  A
C631        C636   1.416       .  A
C632        C633   1.411       .  A
C632        C637   1.449       .  S
C633        C634   1.411       .  A
C633        C640   1.449       .  S
C634        C635   1.408       .  A
C635        C636   1.403       .  A
C635        C638   1.452       .  S
C636        C639   1.453       .  S
C637        N644   1.157       .  T
C638        N643   1.157       .  T
C639        N641   1.157       .  T
C640        N642   1.157       .  T
C645        C646   1.407       .  A
C645        C650   1.408       .  A
C646        C647   1.414       .  A
C646        C651   1.454       .  S
C647        C648   1.431       .  A
C647        C654   1.452       .  S
C648        C649   1.426       .  A
C649        C650   1.420       .  A
C649        C652   1.450       .  S
C650        C653   1.450       .  S
C651        N658   1.157       .  T
C652        N657   1.158       .  T
C653        N655   1.157       .  T
C654        N656   1.158       .  T
C659        C660   1.414       .  A
C659        C664   1.410       .  A
C660        C661   1.400       .  A
C660        C665   1.451       .  S
C661        C662   1.406       .  A
C661        C668   1.454       .  S
C662        C663   1.411       .  A
C663        C664   1.411       .  A
C663        C666   1.450       .  S
C664        C667   1.449       .  S
C665        N672   1.157       .  T
C666        N671   1.157       .  T
C667        N669   1.157       .  T
C668        N670   1.157       .  T
C673        C674   1.409   1_565  A
C673        C678   1.413       .  A
C674        C675   1.403       .  A
C674        C679   1.453       .  S
C675        C676   1.414   1_545  A
C675        C682   1.450       .  S
C676        C677   1.410       .  A
C677        C678   1.411       .  A
C677        C680   1.450       .  S
C678        C681   1.450       .  S
C679        N686   1.157       .  T
C680        N685   1.157       .  T
C681        N683   1.157       .  T
C682        N684   1.156       .  T
C687        C688   1.410       .  A
C687        C692   1.409       .  A
C688        C689   1.413       .  A
C688        C693   1.449       .  S
C689        C690   1.411       .  A
C689        C696   1.449       .  S
C690        C691   1.412       .  A
C691        C692   1.401       .  A
C691        C694   1.449       .  S
C692        C695   1.454       .  S
C693        N700   1.157       .  T
C694        N699   1.156       .  T
C695        N697   1.157       .  T
C696        N698   1.157       .  T
C701        C702   1.409       .  A
C701        C706   1.409       .  A
C702        C703   1.417       .  A
C702        C707   1.450       .  S
C703        C704   1.423       .  A
C703        C710   1.450       .  S
C704        C705   1.427       .  A
C705        C706   1.417       .  A
C705        C708   1.451       .  S
C706        C709   1.452       .  S
C707        N714   1.157       .  T
C708        N713   1.158       .  T
C709        N711   1.157       .  T
C710        N712   1.157       .  T
C715        C716   1.413       .  A
C715        C720   1.411       .  A
C716        C717   1.404       .  A
C716        C721   1.451       .  S
C717        C718   1.409       .  A
C717        C724   1.453       .  S
C718        C719   1.411       .  A
C719        C720   1.413       .  A
C719        C722   1.449       .  S
C720        C723   1.448       .  S
C721        N728   1.157       .  T
C722        N727   1.157       .  T
C723        N725   1.157       .  T
C724        N726   1.157       .  T
C729        C730   1.409       .  A
C729        C734   1.410       .  A
C730        C731   1.416       .  A
C730        C735   1.453       .  S
C731        C732   1.428       .  A
C731        C738   1.452       .  S
C732        C733   1.422       .  A
C733        C734   1.418       .  A
C733        C736   1.449       .  S
C734        C737   1.451       .  S
C735        N742   1.157       .  T
C736        N741   1.157       .  T
C737        N739   1.157       .  T
C738        N740   1.158       .  T
C743        C744   1.407       .  A
C743        C748   1.409   1_554  A
C744        C745   1.402       .  A
C744        C749   1.453       .  S
C745        C746   1.414       .  A
C745        C752   1.451       .  S
C746        C747   1.409       .  A
C747        C748   1.408   1_554  A
C747        C750   1.449       .  S
C748        C751   1.450       .  S
C749        N756   1.157       .  T
C750        N755   1.157       .  T
C751        N753   1.157       .  T
C752        N754   1.157       .  T
C757        C758   1.411       .  A
C757        C762   1.412       .  A
C758        C759   1.405       .  A
C758        C763   1.454       .  S
C759        C760   1.415       .  A
C759        C766   1.450       .  S
C760        C761   1.411       .  A
C761        C762   1.410       .  A
C761        C764   1.449       .  S
C762        C765   1.450       .  S
C763        N770   1.158       .  T
C764        N769   1.157       .  T
C765        N767   1.157       .  T
C766        N768   1.156       .  T
C771        C772   1.411   1_556  A
C771        C776   1.408   1_556  A
C772        C773   1.412       .  A
C772        C777   1.449   1_554  S
C773        C774   1.410       .  A
C773        C780   1.449       .  S
C774        C775   1.415       .  A
C775        C776   1.401       .  A
C775        C778   1.453       .  S
C776        C779   1.453       .  S
C777        N784   1.157       .  T
C778        N783   1.158       .  T
C779        N781   1.157       .  T
C780        N782   1.157       .  T
C785        C786   1.415       .  A
C785        C790   1.411       .  A
C786        C787   1.420       .  A
C786        C791   1.450       .  S
C787        C788   1.414       .  A
C787        C794   1.449       .  S
C788        C789   1.416       .  A
C789        C790   1.416       .  A
C789        C792   1.451       .  S
C790        C793   1.450       .  S
C791        N798   1.157       .  T
C792        N797   1.157       .  T
C793        N795   1.157       .  T
C794        N796   1.157       .  T
C799        C800   1.413       .  A
C799        C804   1.415       .  A
C800        C801   1.414       .  A
C800        C805   1.451       .  S
C801        C802   1.415       .  A
C801        C808   1.451       .  S
C802        C803   1.413       .  A
C803        C804   1.418       .  A
C803        C806   1.450       .  S
C804        C807   1.451       .  S
C805        N812   1.157       .  T
C806        N811   1.157       .  T
C807        N809   1.157       .  T
C808        N810   1.157       .  T
C813        C814   1.425       .  A
C813        C818   1.427       .  A
C814        C815   1.417       .  A
C814        C819   1.451       .  S
C815        C816   1.408       .  A
C815        C822   1.450       .  S
C816        C817   1.412       .  A
C817        C818   1.416       .  A
C817        C820   1.454       .  S
C818        C821   1.453       .  S
C819        N826   1.157       .  T
C820        N825   1.158       .  T
C821        N823   1.158       .  T
C822        N824   1.157       .  T
C827        C828   1.420       .  A
C827        C832   1.422       .  A
C828        C829   1.413       .  A
C828        C833   1.453       .  S
C829        C830   1.412       .  A
C829        C836   1.452       .  S
C830        C831   1.412       .  A
C831        C832   1.420       .  A
C831        C834   1.450       .  S
C832        C835   1.451       .  S
C833        N840   1.158       .  T
C834        N839   1.157       .  T
C835        N837   1.158       .  T
C836        N838   1.157       .  T
C841        C842   1.404       .  A
C841        C846   1.408       .  A
C842        C843   1.412       .  A
C842        C847   1.453       .  S
C843        C844   1.430       .  A
C843        C850   1.452       .  S
C844        C845   1.426       .  A
C845        C846   1.417       .  A
C845        C848   1.450       .  S
C846        C849   1.451       .  S
C847        N854   1.157       .  T
C848        N853   1.158       .  T
C849        N851   1.157       .  T
C850        N852   1.158       .  T
C855        C856   1.413       .  A
C855        C860   1.412       .  A
C856        C857   1.414       .  A
C856        C861   1.449       .  S
C857        C858   1.412       .  A
C857        C864   1.450       .  S
C858        C859   1.415       .  A
C859        C860   1.404       .  A
C859        C862   1.454       .  S
C860        C863   1.449       .  S
C861        N868   1.157       .  T
C862        N867   1.157       .  T
C863        N865   1.156       .  T
C864        N866   1.157       .  T
C869        C870   1.406       .  A
C869        C874   1.409       .  A
C870        C871   1.412       .  A
C870        C875   1.454       .  S
C871        C872   1.429       .  A
C871        C878   1.452       .  S
C872        C873   1.426       .  A
C873        C874   1.420       .  A
C873        C876   1.451       .  S
C874        C877   1.451       .  S
C875        N882   1.157       .  T
C876        N881   1.158       .  T
C877        N879   1.157       .  T
C878        N880   1.158       .  T
C883        C884   1.412       .  A
C883        C888   1.405       .  A
C884        C885   1.411       .  A
C884        C889   1.450       .  S
C885        C886   1.409       .  A
C885        C892   1.449   1_545  S
C886        C887   1.416       .  A
C887        C888   1.399       .  A
C887        C890   1.453       .  S
C888        C891   1.453       .  S
C889        N896   1.157       .  T
C890        N895   1.157   1_545  T
C891        N893   1.157       .  T
C892        N894   1.157       .  T
C897        C898   1.408       .  A
C897        C902   1.413       .  A
C898        C899   1.405       .  A
C898        C903   1.452       .  S
C899        C900   1.414       .  A
C899        C906   1.450       .  S
C900        C901   1.411       .  A
C901        C902   1.415       .  A
C901        C904   1.449       .  S
C902        C905   1.449       .  S
C903        N910   1.157       .  T
C904        N909   1.157       .  T
C905        N907   1.157       .  T
C906        N908   1.157       .  T
C911        C912   1.411   1_565  A
C911        C916   1.409       .  A
C912        C913   1.410       .  A
C912        C917   1.450       .  S
C913        C914   1.410   1_545  A
C913        C920   1.450       .  S
C914        C915   1.412       .  A
C915        C916   1.404       .  A
C915        C918   1.449       .  S
C916        C919   1.452       .  S
C917        N924   1.157       .  T
C918        N923   1.156       .  T
C919        N921   1.157       .  T
C920        N922   1.157       .  T
C925        C926   1.413       .  A
C925        C930   1.413       .  A
C926        C927   1.417       .  A
C926        C931   1.450       .  S
C927        C928   1.413       .  A
C927        C934   1.450       .  S
C928        C929   1.412       .  A
C929        C930   1.414       .  A
C929        C932   1.450       .  S
C930        C933   1.451       .  S
C931        N938   1.157       .  T
C932        N937   1.157       .  T
C933        N935   1.157       .  T
C934        N936   1.157       .  T
C939        C940   1.424       .  A
C939        C944   1.424       .  A
C940        C941   1.417       .  A
C940        C945   1.449       .  S
C941        C942   1.409       .  A
C941        C948   1.452       .  S
C942        C943   1.407       .  A
C943        C944   1.417       .  A
C943        C946   1.450       .  S
C944        C947   1.450       .  S
C945        N952   1.157       .  T
C946        N951   1.157       .  T
C947        N949   1.157       .  T
C948        N950   1.157       .  T
C953        C954   1.412       .  A
C953        C958   1.412       .  A
C954        C955   1.415       .  A
C954        C959   1.450       .  S
C955        C956   1.412       .  A
C955        C962   1.450       .  S
C956        C957   1.412       .  A
C957        C958   1.414       .  A
C957        C960   1.450       .  S
C958        C961   1.450       .  S
C959        N966   1.157       .  T
C960        N965   1.157       .  T
C961        N963   1.157       .  T
C962        N964   1.157       .  T
C967        C968   1.422       .  A
C967        C972   1.426       .  A
C968        C969   1.422       .  A
C968        C973   1.450       .  S
C969        C970   1.411       .  A
C969        C976   1.450       .  S
C970        C971   1.411       .  A
C971        C972   1.417       .  A
C971        C974   1.452       .  S
C972        C975   1.452       .  S
C973        N980   1.157       .  T
C974        N979   1.157       .  T
C975        N977   1.158       .  T
C976        N978   1.157       .  T
C981        C982   1.412       .  A
C981        C986   1.413       .  A
C982        C983   1.414       .  A
C982        C987   1.450       .  S
C983        C984   1.412       .  A
C983        C990   1.451       .  S
C984        C985   1.411       .  A
C985        C986   1.415       .  A
C985        C988   1.450       .  S
C986        C989   1.450       .  S
C987        N994   1.157       .  T
C988        N993   1.157       .  T
C989        N991   1.157       .  T
C990        N992   1.157       .  T
C995        C996   1.421       .  A
C995       C1000   1.423       .  A
C996        C997   1.417       .  A
C996       C1001   1.451       .  S
C997        C998   1.409       .  A
C997       C1004   1.450       .  S
C998        C999   1.409       .  A
C999       C1000   1.413       .  A
C999       C1002   1.452       .  S
C1000      C1003   1.452       .  S
C1001      N1008   1.157       .  T
C1002      N1007   1.157       .  T
C1003      N1005   1.158       .  T
C1004      N1006   1.157       .  T
C1009      C1010   1.412       .  A
C1009      C1014   1.415       .  A
C1010      C1011   1.411       .  A
C1010      C1015   1.451       .  S
C1011      C1012   1.412       .  A
C1011      C1018   1.451       .  S
C1012      C1013   1.414       .  A
C1013      C1014   1.419       .  A
C1013      C1016   1.450       .  S
C1014      C1017   1.449       .  S
C1015      N1022   1.157       .  T
C1016      N1021   1.157       .  T
C1017      N1019   1.157       .  T
C1018      N1020   1.157       .  T
C1023      C1024   1.428       .  A
C1023      C1028   1.428       .  A
C1024      C1025   1.419       .  A
C1024      C1029   1.451       .  S
C1025      C1026   1.409       .  A
C1025      C1032   1.451       .  S
C1026      C1027   1.406       .  A
C1027      C1028   1.416       .  A
C1027      C1030   1.452       .  S
C1028      C1031   1.450       .  S
C1029      N1036   1.158       .  T
C1030      N1035   1.157       .  T
C1031      N1033   1.158       .  T
C1032      N1034   1.157       .  T
C1037      C1038   1.421       .  A
C1037      C1042   1.421       .  A
C1038      C1039   1.421       .  A
C1038      C1043   1.450       .  S
C1039      C1040   1.412       .  A
C1039      C1046   1.450       .  S
C1040      C1041   1.413       .  A
C1041      C1042   1.414       .  A
C1041      C1044   1.452       .  S
C1042      C1045   1.453       .  S
C1043      N1050   1.157       .  T
C1044      N1049   1.157       .  T
C1045      N1047   1.158       .  T
C1046      N1048   1.157       .  T
C1051      C1052   1.408       .  A
C1051      C1056   1.413       .  A
C1052      C1053   1.410       .  A
C1052      C1057   1.449       .  S
C1053      C1054   1.412       .  A
C1053      C1060   1.449       .  S
C1054      C1055   1.409       .  A
C1055      C1056   1.406       .  A
C1055      C1058   1.452       .  S
C1056      C1059   1.451       .  S
C1057      N1064   1.157       .  T
C1058      N1063   1.157       .  T
C1059      N1061   1.157       .  T
C1060      N1062   1.157       .  T
C1065      C1066   1.412       .  A
C1065      C1070   1.409       .  A
C1066      C1067   1.412       .  A
C1066      C1071   1.454       .  S
C1067      C1068   1.422       .  A
C1067      C1074   1.452       .  S
C1068      C1069   1.425       .  A
C1069      C1070   1.419       .  A
C1069      C1072   1.451       .  S
C1070      C1073   1.451       .  S
C1071      N1078   1.157       .  T
C1072      N1077   1.158       .  T
C1073      N1075   1.157       .  T
C1074      N1076   1.158       .  T
C1079      C1080   1.409       .  A
C1079      C1084   1.409       .  A
C1080      C1081   1.415       .  A
C1080      C1085   1.451       .  S
C1081      C1082   1.423       .  A
C1081      C1088   1.451       .  S
C1082      C1083   1.425       .  A
C1083      C1084   1.415       .  A
C1083      C1086   1.451       .  S
C1084      C1087   1.452       .  S
C1085      N1092   1.157       .  T
C1086      N1091   1.158       .  T
C1087      N1089   1.157       .  T
C1088      N1090   1.158       .  T
C1093      C1094   1.409       .  A
C1093      C1098   1.410   1_556  A
C1094      C1095   1.403       .  A
C1094      C1099   1.453       .  S
C1095      C1096   1.415       .  A
C1095      C1102   1.453       .  S
C1096      C1097   1.410   1_556  A
C1097      C1098   1.409       .  A
C1097      C1100   1.449       .  S
C1098      C1101   1.450       .  S
C1099      N1106   1.157       .  T
C1100      N1105   1.157       .  T
C1101      N1103   1.157       .  T
C1102      N1104   1.157       .  T
C1107      C1108   1.418       .  A
C1107      C1112   1.410       .  A
C1108      C1109   1.416       .  A
C1108      C1113   1.453       .  S
C1109      C1110   1.420       .  A
C1109      C1116   1.453       .  S
C1110      C1111   1.420       .  A
C1111      C1112   1.418       .  A
C1111      C1114   1.448       .  S
C1112      C1115   1.450       .  S
C1113      N1120   1.158       .  T
C1114      N1119   1.157       .  T
C1115      N1117   1.157       .  T
C1116      N1118   1.158       .  T
C1121      C1122   1.407       .  A
C1121      C1126   1.411       .  A
C1122      C1123   1.401       .  A
C1122      C1127   1.453       .  S
C1123      C1124   1.415       .  A
C1123      C1130   1.453       .  S
C1124      C1125   1.411       .  A
C1125      C1126   1.412       .  A
C1125      C1128   1.449       .  S
C1126      C1129   1.449       .  S
C1127      N1134   1.157       .  T
C1128      N1133   1.157       .  T
C1129      N1131   1.157       .  T
C1130      N1132   1.157       .  T
C1135      C1136   1.407       .  A
C1135      C1140   1.411   1_554  A
C1136      C1137   1.400       .  A
C1136      C1141   1.453       .  S
C1137      C1138   1.415   1_554  A
C1137      C1144   1.452       .  S
C1138      C1139   1.411       .  A
C1139      C1140   1.414       .  A
C1139      C1142   1.448       .  S
C1140      C1143   1.449       .  S
C1141      N1148   1.157       .  T
C1142      N1147   1.157       .  T
C1143      N1145   1.157       .  T
C1144      N1146   1.156       .  T
C1149      C1150   1.414       .  A
C1149      C1154   1.411       .  A
C1150      C1151   1.419       .  A
C1150      C1155   1.450       .  S
C1151      C1152   1.415       .  A
C1151      C1158   1.450       .  S
C1152      C1153   1.414       .  A
C1153      C1154   1.413       .  A
C1153      C1156   1.451       .  S
C1154      C1157   1.451       .  S
C1155      N1162   1.157       .  T
C1156      N1161   1.157       .  T
C1157      N1159   1.157       .  T
C1158      N1160   1.157       .  T
C1163      C1164   1.420       .  A
C1163      C1168   1.422       .  A
C1164      C1165   1.415       .  A
C1164      C1169   1.453       .  S
C1165      C1166   1.418       .  A
C1165      C1172   1.454       .  S
C1166      C1167   1.411       .  A
C1167      C1168   1.421       .  A
C1167      C1170   1.449       .  S
C1168      C1171   1.450       .  S
C1169      N1176   1.158       .  T
C1170      N1175   1.157       .  T
C1171      N1173   1.157       .  T
C1172      N1174   1.157       .  T
C1177      C1178   1.413       .  A
C1177      C1182   1.413       .  A
C1178      C1179   1.418       .  A
C1178      C1183   1.449       .  S
C1179      C1180   1.412       .  A
C1179      C1186   1.449       .  S
C1180      C1181   1.415       .  A
C1181      C1182   1.417       .  A
C1181      C1184   1.450       .  S
C1182      C1185   1.451       .  S
C1183      N1190   1.157       .  T
C1184      N1189   1.157       .  T
C1185      N1187   1.157       .  T
C1186      N1188   1.157       .  T
C1191      C1192   1.426       .  A
C1191      C1196   1.427       .  A
C1192      C1193   1.414       .  A
C1192      C1197   1.450       .  S
C1193      C1194   1.407       .  A
C1193      C1200   1.453       .  S
C1194      C1195   1.408       .  A
C1195      C1196   1.418       .  A
C1195      C1198   1.451       .  S
C1196      C1199   1.451       .  S
C1197      N1204   1.157       .  T
C1198      N1203   1.157       .  T
C1199      N1201   1.158       .  T
C1200      N1202   1.157       .  T
C1205      C1206   1.414       .  A
C1205      C1210   1.420       .  A
C1206      C1207   1.412       .  A
C1206      C1211   1.452       .  S
C1207      C1208   1.416       .  A
C1207      C1214   1.452       .  S
C1208      C1209   1.413       .  A
C1209      C1210   1.422       .  A
C1209      C1212   1.450       .  S
C1210      C1213   1.447       .  S
C1211      N1218   1.157       .  T
C1212      N1217   1.157       .  T
C1213      N1215   1.157       .  T
C1214      N1216   1.157       .  T
C1219      C1220   1.414       .  A
C1219      C1224   1.415       .  A
C1220      C1221   1.415       .  A
C1220      C1225   1.450       .  S
C1221      C1222   1.414       .  A
C1221      C1228   1.451       .  S
C1222      C1223   1.414       .  A
C1223      C1224   1.422       .  A
C1223      C1226   1.449       .  S
C1224      C1227   1.448       .  S
C1225      N1232   1.157       .  T
C1226      N1231   1.157       .  T
C1227      N1229   1.157       .  T
C1228      N1230   1.157       .  T
C1233      C1234   1.412       .  A
C1233      C1238   1.415       .  A
C1234      C1235   1.415       .  A
C1234      C1239   1.450       .  S
C1235      C1236   1.412       .  A
C1235      C1242   1.450       .  S
C1236      C1237   1.412       .  A
C1237      C1238   1.418       .  A
C1237      C1240   1.450       .  S
C1238      C1241   1.450       .  S
C1239      N1246   1.157       .  T
C1240      N1245   1.157       .  T
C1241      N1243   1.157       .  T
C1242      N1244   1.157       .  T
C1247      C1248   1.415       .  A
C1247      C1252   1.412       .  A
C1248      C1249   1.419       .  A
C1248      C1253   1.450       .  S
C1249      C1250   1.414       .  A
C1249      C1256   1.448       .  S
C1250      C1251   1.418       .  A
C1251      C1252   1.410       .  A
C1251      C1254   1.453       .  S
C1252      C1255   1.453       .  S
C1253      N1260   1.157       .  T
C1254      N1259   1.157       .  T
C1255      N1257   1.158       .  T
C1256      N1258   1.157       .  T
C1261      C1262   1.418       .  A
C1261      C1266   1.415       .  A
C1262      C1263   1.411       .  A
C1262      C1267   1.452       .  S
C1263      C1264   1.415       .  A
C1263      C1270   1.454       .  S
C1264      C1265   1.416       .  A
C1265      C1266   1.423       .  A
C1265      C1268   1.448       .  S
C1266      C1269   1.449       .  S
C1267      N1274   1.157       .  T
C1268      N1273   1.157       .  T
C1269      N1271   1.157       .  T
C1270      N1272   1.158       .  T
C1275      C1276   1.414       .  A
C1275      C1280   1.413       .  A
C1276      C1277   1.402       .  A
C1276      C1281   1.453       .  S
C1277      C1278   1.410       .  A
C1277      C1284   1.453       .  S
C1278      C1279   1.412       .  A
C1279      C1280   1.416       .  A
C1279      C1282   1.449       .  S
C1280      C1283   1.449       .  S
C1281      N1288   1.157       .  T
C1282      N1287   1.157       .  T
C1283      N1285   1.157       .  T
C1284      N1286   1.157       .  T
C1289      C1290   1.412       .  A
C1289      C1294   1.413       .  A
C1290      C1291   1.414       .  A
C1290      C1295   1.451       .  S
C1291      C1292   1.414       .  A
C1291      C1298   1.451       .  S
C1292      C1293   1.414       .  A
C1293      C1294   1.420       .  A
C1293      C1296   1.449       .  S
C1294      C1297   1.449       .  S
C1295      N1302   1.157       .  T
C1296      N1301   1.157       .  T
C1297      N1299   1.157       .  T
C1298      N1300   1.157       .  T
C1303      C1304   1.410       .  A
C1303      C1308   1.411       .  A
C1304      C1305   1.419       .  A
C1304      C1309   1.449       .  S
C1305      C1306   1.420       .  A
C1305      C1312   1.450       .  S
C1306      C1307   1.423       .  A
C1307      C1308   1.414       .  A
C1307      C1310   1.451       .  S
C1308      C1311   1.453       .  S
C1309      N1316   1.157       .  T
C1310      N1315   1.158       .  T
C1311      N1313   1.157       .  T
C1312      N1314   1.157       .  T
C1317      C1318   1.409       .  A
C1317      C1322   1.412       .  A
C1318      C1319   1.406       .  A
C1318      C1323   1.451       .  S
C1319      C1320   1.414       .  A
C1319      C1326   1.453       .  S
C1320      C1321   1.410       .  A
C1321      C1322   1.413       .  A
C1321      C1324   1.449       .  S
C1322      C1325   1.450       .  S
C1323      N1330   1.157       .  T
C1324      N1329   1.157       .  T
C1325      N1327   1.157       .  T
C1326      N1328   1.157       .  T
C1331      C1332   1.411       .  A
C1331      C1336   1.407       .  A
C1332      C1333   1.413       .  A
C1332      C1337   1.449       .  S
C1333      C1334   1.410       .  A
C1333      C1340   1.448       .  S
C1334      C1335   1.414       .  A
C1335      C1336   1.403       .  A
C1335      C1338   1.451       .  S
C1336      C1339   1.453   1_455  S
C1337      N1344   1.157       .  T
C1338      N1343   1.157       .  T
C1339      N1341   1.157       .  T
C1340      N1342   1.157       .  T
C1345      C1346   1.431       .  A
C1345      C1350   1.426       .  A
C1346      C1347   1.419       .  A
C1346      C1351   1.451       .  S
C1347      C1348   1.406       .  A
C1347      C1354   1.452       .  S
C1348      C1349   1.411       .  A
C1349      C1350   1.420       .  A
C1349      C1352   1.451       .  S
C1350      C1353   1.450       .  S
C1351      N1358   1.158       .  T
C1352      N1357   1.157       .  T
C1353      N1355   1.158       .  T
C1354      N1356   1.157       .  T
C1359      C1360   1.408       .  A
C1359      C1364   1.413       .  A
C1360      C1361   1.401       .  A
C1360      C1365   1.451       .  S
C1361      C1362   1.411       .  A
C1361      C1368   1.450       .  S
C1362      C1363   1.412       .  A
C1363      C1364   1.417       .  A
C1363      C1366   1.448       .  S
C1364      C1367   1.449       .  S
C1365      N1372   1.156       .  T
C1366      N1371   1.157       .  T
C1367      N1369   1.157       .  T
C1368      N1370   1.156       .  T
C1373      C1374   1.425       .  A
C1373      C1378   1.422       .  A
C1374      C1375   1.422       .  A
C1374      C1379   1.450       .  S
C1375      C1376   1.411       .  A
C1375      C1382   1.450       .  S
C1376      C1377   1.415       .  A
C1377      C1378   1.415       .  A
C1377      C1380   1.453       .  S
C1378      C1381   1.452       .  S
C1379      N1386   1.157       .  T
C1380      N1385   1.157       .  T
C1381      N1383   1.158       .  T
C1382      N1384   1.157       .  T
C1387      C1388   1.422       .  A
C1387      C1392   1.424       .  A
C1388      C1389   1.414       .  A
C1388      C1393   1.452       .  S
C1389      C1390   1.410       .  A
C1389      C1396   1.452       .  S
C1390      C1391   1.409       .  A
C1391      C1392   1.418       .  A
C1391      C1394   1.451       .  S
C1392      C1395   1.451       .  S
C1393      N1400   1.158       .  T
C1394      N1399   1.157       .  T
C1395      N1397   1.158       .  T
C1396      N1398   1.157       .  T
C1401      C1402   1.428       .  A
C1401      C1406   1.427       .  A
C1402      C1403   1.415       .  A
C1402      C1407   1.449       .  S
C1403      C1404   1.405       .  A
C1403      C1410   1.452       .  S
C1404      C1405   1.406       .  A
C1405      C1406   1.418       .  A
C1405      C1408   1.450       .  S
C1406      C1409   1.451       .  S
C1407      N1414   1.157       .  T
C1408      N1413   1.157       .  T
C1409      N1411   1.158       .  T
C1410      N1412   1.157       .  T
C1415      C1416   1.430       .  A
C1415      C1420   1.431       .  A
C1416      C1417   1.421       .  A
C1416      C1421   1.450       .  S
C1417      C1418   1.408       .  A
C1417      C1424   1.452       .  S
C1418      C1419   1.408       .  A
C1419      C1420   1.419       .  A
C1419      C1422   1.453       .  S
C1420      C1423   1.451       .  S
C1421      N1428   1.157       .  T
C1422      N1427   1.157       .  T
C1423      N1425   1.158       .  T
C1424      N1426   1.157       .  T
C1429      C1430   1.431       .  A
C1429      C1434   1.430       .  A
C1430      C1431   1.419       .  A
C1430      C1435   1.450       .  S
C1431      C1432   1.407       .  A
C1431      C1438   1.452       .  S
C1432      C1433   1.409       .  A
C1433      C1434   1.422       .  A
C1433      C1436   1.452       .  S
C1434      C1437   1.449       .  S
C1435      N1442   1.157       .  T
C1436      N1441   1.157       .  T
C1437      N1439   1.157       .  T
C1438      N1440   1.157       .  T
C1443      C1444   1.419       .  A
C1443      C1448   1.416       .  A
C1444      C1445   1.420       .  A
C1444      C1449   1.449       .  S
C1445      C1446   1.413       .  A
C1445      C1452   1.450       .  S
C1446      C1447   1.416       .  A
C1447      C1448   1.412       .  A
C1447      C1450   1.452       .  S
C1448      C1451   1.452       .  S
C1449      N1456   1.157       .  T
C1450      N1455   1.157       .  T
C1451      N1453   1.157       .  T
C1452      N1454   1.157       .  T
C1457      C1458   1.414       .  A
C1457      C1462   1.415       .  A
C1458      C1459   1.413       .  A
C1458      C1463   1.451       .  S
C1459      C1460   1.413       .  A
C1459      C1466   1.452       .  S
C1460      C1461   1.413       .  A
C1461      C1462   1.419       .  A
C1461      C1464   1.449       .  S
C1462      C1465   1.449       .  S
C1463      N1470   1.157       .  T
C1464      N1469   1.157       .  T
C1465      N1467   1.157       .  T
C1466      N1468   1.157       .  T
C1471      C1472   1.429       .  A
C1471      C1476   1.430       .  A
C1472      C1473   1.419       .  A
C1472      C1477   1.451       .  S
C1473      C1474   1.408       .  A
C1473      C1480   1.452       .  S
C1474      C1475   1.407       .  A
C1475      C1476   1.419       .  A
C1475      C1478   1.452       .  S
C1476      C1479   1.451       .  S
C1477      N1484   1.158       .  T
C1478      N1483   1.157       .  T
C1479      N1481   1.158       .  T
C1480      N1482   1.157       .  T
C1485      C1486   1.415       .  A
C1485      C1490   1.411       .  A
C1486      C1487   1.419       .  A
C1486      C1491   1.450       .  S
C1487      C1488   1.414       .  A
C1487      C1494   1.450       .  S
C1488      C1489   1.413       .  A
C1489      C1490   1.416       .  A
C1489      C1492   1.448       .  S
C1490      C1493   1.450       .  S
C1491      N1498   1.157       .  T
C1492      N1497   1.157       .  T
C1493      N1495   1.157       .  T
C1494      N1496   1.157       .  T
C1499      C1500   1.425       .  A
C1499      C1504   1.428       .  A
C1500      C1501   1.416       .  A
C1500      C1505   1.452       .  S
C1501      C1502   1.411       .  A
C1501      C1508   1.452       .  S
C1502      C1503   1.407       .  A
C1503      C1504   1.420       .  A
C1503      C1506   1.451       .  S
C1504      C1507   1.450       .  S
C1505      N1512   1.158       .  T
C1506      N1511   1.157       .  T
C1507      N1509   1.157       .  T
C1508      N1510   1.157       .  T
C1513      C1514   1.418       .  A
C1513      C1518   1.413       .  A
C1514      C1515   1.419       .  A
C1514      C1519   1.450       .  S
C1515      C1516   1.412       .  A
C1515      C1522   1.450       .  S
C1516      C1517   1.412       .  A
C1517      C1518   1.411       .  A
C1517      C1520   1.452       .  S
C1518      C1521   1.451       .  S
C1519      N1526   1.157       .  T
C1520      N1525   1.157       .  T
C1521      N1523   1.157       .  T
C1522      N1524   1.157       .  T
C1527      C1528   1.416       .  A
C1527      C1532   1.412       .  A
C1528      C1529   1.423       .  A
C1528      C1533   1.449       .  S
C1529      C1530   1.416       .  A
C1529      C1536   1.449       .  S
C1530      C1531   1.416       .  A
C1531      C1532   1.412       .  A
C1531      C1534   1.452       .  S
C1532      C1535   1.451       .  S
C1533      N1540   1.157       .  T
C1534      N1539   1.157       .  T
C1535      N1537   1.157       .  T
C1536      N1538   1.157       .  T
