geometry optimzed in LAMMPS
_audit_creation_date              2020-11-30 
_audit_creation_method            'lammps2cif' 
_symmetry_space_group_name_H-M    'P1' 
_symmetry_Int_Tables_number       1 
_symmetry_cell_setting            triclinic 
loop_ 
_symmetry_equiv_pos_as_xyz 
  x,y,z 
_cell_length_a                    46.54831214 
_cell_length_b                    24.93045867640303 
_cell_length_c                    30.61048841157865 
_cell_angle_alpha                 92.41891730831738 
_cell_angle_beta                  92.12411183655769 
_cell_angle_gamma                 89.57522510359327 
loop_ 
_atom_site_label 
_atom_site_type_symbol 
_atom_site_fract_x 
_atom_site_fract_y 
_atom_site_fract_z 
_atom_site_charge 
C1          C  0.34452614  0.75338674  0.00057833     0.80400
N2          N  0.33711182  0.73397877  0.45940377    -0.77900
C3          C  0.31907643  0.69188948  0.45284378     0.82800
N4          N  0.30819554  0.66901324  0.48785290    -0.77800
C5          C  0.31473813  0.68762483  0.02936315     0.81300
N6          N  0.33295899  0.73025374  0.03569556    -0.79600
C7          C  0.11441829  0.83624123  0.99796320     0.80400
N8          N  0.12442491  0.81347550  0.46007910    -0.77900
C9          C  0.14680469  0.77834829  0.46127310     0.82800
N10         N  0.15870352  0.76496735  0.50037605    -0.77800
C11         C  0.14895407  0.78661763  0.03854098     0.82900
N12         N  0.12663937  0.82208242  0.03704650    -0.79600
C13         C  0.29351105  0.27468028  0.99310253     0.80400
N14         N  0.28251434  0.29140133  0.45436558    -0.77900
C15         C  0.25959371  0.32521246  0.45247223     0.82800
N16         N  0.24734648  0.34281979  0.49026092    -0.77800
C17         C  0.25847346  0.32760602  0.02970393     0.82900
N18         N  0.28146901  0.29346783  0.03075638    -0.79600
N19         N  0.46427756  0.97751122  0.00313410    -0.36400
N20         N  0.41189518  0.04234967  0.00785626    -0.57000
N21         N  0.44599497  0.13825473  0.99766132    -0.36400
N22         N  0.49864846  0.07393275  0.99925115    -0.57000
C23         C  0.44532071  0.94048073  0.01482895     0.27200
C24         C  0.49091209  0.95708981  0.01024366     0.27200
C25         C  0.42016795  0.16062589  0.00623748     0.27200
C26         C  0.46590364  0.17736934  0.00311556     0.27200
C27         C  0.40006054  0.99305232  0.00379651     0.35800
C28         C  0.39035027  0.07777818  0.00054312     0.35800
C29         C  0.01946817  0.03690435  0.99238785     0.35800
C30         C  0.00996186  0.12183742  0.99063053     0.35800
C31         C  0.46004041  0.89563185  0.02923809    -0.21700
C32         C  0.48884289  0.90610593  0.02634465    -0.21700
C33         C  0.42360181  0.21494916  0.01653229    -0.21700
C34         C  0.45245290  0.22549370  0.01469420    -0.21700
C35         C  0.37073888  0.99718074  0.99473714    -0.22800
C36         C  0.36457912  0.05095963  0.99268743    -0.22800
C37         C  0.04430374  0.06144264  0.97986556    -0.22800
C38         C  0.03829255  0.11539939  0.97887274    -0.22800
C39         C  0.41514165  0.94443680  0.00977383    -0.18100
C40         C  0.01693804  0.98181600  0.00018175    -0.18100
C41         C  0.49564165  0.17162228  0.99585960    -0.18100
C42         C  0.39339687  0.13410277  0.00280776    -0.18100
H43         H  0.45096114  0.85888186  0.04013984     0.14800
H44         H  0.00625299  0.87894147  0.03465447     0.14800
H45         H  0.40702804  0.24409981  0.02434824     0.14800
H46         H  0.46233126  0.26438317  0.02079284     0.14800
H47         H  0.35538017  0.96485561  0.99018642     0.13100
H48         H  0.34353947  0.06832527  0.98629337     0.13100
H49         H  0.06472443  0.04255216  0.97284105     0.13100
H50         H  0.05313620  0.14637930  0.97080746     0.13100
H51         H  0.45921308  0.01334870  0.98817242     0.26300
H52         H  0.44961475  0.09888867  0.98626739     0.26300
C53         C  0.05477349  0.37484063  0.99498138     0.80400
N54         N  0.06739511  0.39336194  0.45892624    -0.77900
C55         C  0.08143223  0.44117149  0.46178146     0.82800
N56         N  0.08280633  0.46933887  0.50023890    -0.77800
C57         C  0.07137758  0.45129249  0.03657019     0.82900
N58         N  0.05759299  0.40341564  0.03394834    -0.79600
O59         O  0.20671951  0.60454034  0.33710936    -0.80000
O60         O  0.17155735  0.52380115  0.15631641    -0.80000
O61         O  0.20526689  0.69070231  0.22119176    -0.80000
O62         O  0.15111539  0.51569950  0.29668403    -0.79900
O63         O  0.18047858  0.62648935  0.18508011    -0.80100
O64         O  0.18758242  0.50403778  0.34293436    -0.80000
O65         O  0.14431779  0.52653527  0.21204136    -0.80000
O66         O  0.17813608  0.63685459  0.28471700    -0.80000
C67         C  0.18620936  0.63536587  0.32467173     1.09700
C68         C  0.14677547  0.52407938  0.17162305     1.09600
C69         C  0.18747770  0.67654135  0.19074055     1.09800
C70         C  0.16064018  0.50736847  0.33469824     1.09600
O71         O  0.23376685  0.46289279  0.28949457    -0.80000
O72         O  0.21930022  0.57365293  0.13581411    -0.80000
O73         O  0.23903756  0.64411649  0.28343392    -0.80000
O74         O  0.18784685  0.44079088  0.19522396    -0.79900
O75         O  0.22705826  0.48780698  0.18682686    -0.80000
O76         O  0.25582149  0.56382842  0.28748909    -0.80000
O77         O  0.19090743  0.42784089  0.28522877    -0.79900
O78         O  0.24072406  0.60887209  0.19590958    -0.80000
Co79       Co  0.22071357  0.53391891  0.31069966     1.51500
Co80       Co  0.20533143  0.55588881  0.18998165     1.51700
Co81       Co  0.20721287  0.61945588  0.24087454     1.51600
Co82       Co  0.17002118  0.48170110  0.24710130     1.51500
O83         O  0.19959166  0.54183589  0.25256529    -1.41900
C84         C  0.21729371  0.42481838  0.29723474     1.09700
C85         C  0.24048923  0.59808423  0.15391635     1.09800
C86         C  0.25881271  0.61308165  0.29673104     1.09700
C87         C  0.21263588  0.44540566  0.17897550     1.09700
C88         C  0.09400877  0.52884502  0.07662510    -0.12100
C89         C  0.08111695  0.47793604  0.07863639     0.04900
C90         C  0.08523356  0.44930889  0.11727220    -0.07400
C91         C  0.10525995  0.46789558  0.14944494    -0.08100
C92         C  0.12129562  0.51411955  0.14344614    -0.02700
C93         C  0.11451215  0.54636991  0.10823521     0.04100
N94         N  0.12881668  0.59620445  0.10377321     0.66700
H95         H  0.09027424  0.55292842  0.04827526     0.15600
H96         H  0.11003735  0.44365553  0.17742780     0.15300
N97         N  0.07183022  0.39877016  0.12249453     0.74400
O98         O  0.14947131  0.59910100  0.07844186    -0.39100
O99         O  0.12187126  0.63666034  0.12722741    -0.39000
O100        O  0.08670194  0.35631691  0.11969820    -0.39700
O101        O  0.04765024  0.39766708  0.13973769    -0.39800
C102        C  0.12717759  0.48149045  0.44224409    -0.12100
C103        C  0.10070517  0.45840867  0.42794850     0.04900
C104        C  0.09369967  0.45416388  0.38293193    -0.07400
C105        C  0.11321145  0.47222083  0.35326120    -0.08100
C106        C  0.13982393  0.49448111  0.36765447    -0.02700
C107        C  0.14655745  0.49975025  0.41269990     0.04100
N108        N  0.17259427  0.52460966  0.42905593     0.66700
H109        H  0.13306119  0.48534341  0.47682971     0.15600
H110        H  0.10764254  0.46777484  0.31861199     0.15300
N111        N  0.06675892  0.43308118  0.36671290     0.74400
O112        O  0.17313966  0.57478469  0.43644578    -0.39100
O113        O  0.19293229  0.49597323  0.44369799    -0.39000
O114        O  0.04531473  0.46418302  0.36405345    -0.39700
O115        O  0.06642116  0.38930067  0.34449918    -0.39800
C116        C  0.03923762  0.29371181  0.03273897    -0.12100
C117        C  0.04061228  0.32139084  0.99364186     0.04900
C118        C  0.02848402  0.29699504  0.45462203    -0.07400
C119        C  0.01448551  0.24758441  0.45578526    -0.08100
C120        C  0.51282124  0.22121212  0.99497771    -0.02700
C121        C  0.52579194  0.24381620  0.03348955     0.04100
N122        N  0.52511753  0.21660312  0.07361163     0.66700
H123        H  0.04873669  0.31060685  0.06297831     0.15600
H124        H  0.00447595  0.23003961  0.42604759     0.15300
N125        N  0.02952478  0.32203552  0.41366354     0.74400
O126        O  0.54373760  0.18105925  0.08191740    -0.39100
O127        O  0.50399892  0.22316829  0.09799007    -0.39000
O128        O  0.04379568  0.29983060  0.38359144    -0.39700
O129        O  0.01097046  0.35723882  0.40418471    -0.39800
C130        C  0.32860099  0.21793104  0.03523741    -0.12100
C131        C  0.31862720  0.23680926  0.99452663     0.04900
C132        C  0.33349089  0.21981110  0.45657208    -0.07400
C133        C  0.35746198  0.18591615  0.46021334    -0.08100
C134        C  0.36707981  0.16777415  0.00059691    -0.02700
C135        C  0.35253120  0.18364720  0.03838055     0.04100
N136        N  0.36238338  0.16618211  0.08022279     0.66700
H137        H  0.31794445  0.22994089  0.06497211     0.15600
H138        H  0.36887273  0.17386983  0.43111589     0.15300
N139        N  0.32537182  0.23720042  0.41393594     0.74400
O140        O  0.38102322  0.19326414  0.10229593    -0.39100
O141        O  0.35609599  0.11983421  0.09173174    -0.39000
O142        O  0.34323384  0.26329273  0.39336183    -0.39700
O143        O  0.30483576  0.21410128  0.39285458    -0.39800
C144        C  0.21672275  0.35703372  0.07485671    -0.12100
C145        C  0.24660493  0.35064026  0.07121207     0.04900
C146        C  0.26478500  0.36902766  0.10667797    -0.07400
C147        C  0.25319365  0.39721379  0.14273198    -0.08100
C148        C  0.22342037  0.40538634  0.14569176    -0.02700
C149        C  0.20503714  0.38257593  0.11218427     0.04100
N150        N  0.17450883  0.38745222  0.11449793     0.66700
H151        H  0.20233530  0.34218986  0.04850863     0.15600
H152        H  0.26769574  0.41420700  0.16807793     0.15300
N153        N  0.29526584  0.36235302  0.10550724     0.74400
O154        O  0.16087686  0.42026422  0.09113065    -0.39100
O155        O  0.16098462  0.35698898  0.13832729    -0.39000
O156        O  0.31056768  0.40026820  0.09361080    -0.39700
O157        O  0.30709563  0.32313683  0.12391434    -0.39800
C158        C  0.25732548  0.38310856  0.33940479    -0.12100
C159        C  0.22768308  0.38506425  0.32936793     0.04900
C160        C  0.20888267  0.36051805  0.35782296    -0.07400
C161        C  0.21962476  0.34152706  0.39789623    -0.08100
C162        C  0.24902814  0.34425745  0.40948041    -0.02700
C163        C  0.26813043  0.36364968  0.37902284     0.04100
N164        N  0.29825421  0.36900858  0.38934270     0.66700
H165        H  0.27218329  0.40137049  0.31807110     0.15600
H166        H  0.20490339  0.32444249  0.42006754     0.15300
N167        N  0.17885880  0.35532770  0.34710966     0.74400
O168        O  0.31612924  0.35500470  0.36095257    -0.39100
O169        O  0.30651341  0.39861756  0.42178299    -0.39000
O170        O  0.17051061  0.31821256  0.32042339    -0.39700
O171        O  0.16084308  0.37837462  0.37142274    -0.39800
C172        C  0.04919229  0.91878319  0.96025544    -0.12100
C173        C  0.04309821  0.94781099  0.99888032     0.04900
C174        C  0.06073218  0.94173376  0.03654018    -0.07400
C175        C  0.08374809  0.90541520  0.53536034    -0.08100
C176        C  0.08997923  0.87524193  0.99698789    -0.02700
C177        C  0.07243355  0.88290870  0.95878645     0.04100
N178        N  0.07720254  0.85370553  0.91850863     0.66700
H179        H  0.03547505  0.92336340  0.93123792     0.15600
H180        H  0.09680451  0.90095511  0.56503138     0.15300
N181        N  0.05490680  0.97132202  0.07626943     0.74400
O182        O  0.06416518  0.81008565  0.91005717    -0.39100
O183        O  0.08960566  0.87695196  0.38810911    -0.39000
O184        O  0.03870650  0.95165754  0.10352643    -0.39700
O185        O  0.06239528  0.01957824  0.58117850    -0.39800
C186        C  0.14348183  0.76853963  0.11801166    -0.12100
C187        C  0.16066069  0.76697160  0.08091192     0.04900
C188        C  0.18798456  0.74187146  0.08398915    -0.07400
C189        C  0.19654357  0.71608454  0.12174496    -0.08100
C190        C  0.17868492  0.71424508  0.15716981    -0.02700
C191        C  0.15237260  0.74245758  0.15620812     0.04100
N192        N  0.13455821  0.74473993  0.19330827     0.66700
H193        H  0.12265983  0.78823294  0.11688466     0.15600
H194        H  0.21706603  0.69535233  0.12260289     0.15300
N195        N  0.20724905  0.74059329  0.04875238     0.74400
O196        O  0.13972702  0.77929810  0.22384110    -0.39100
O197        O  0.11070582  0.72088541  0.19138854    -0.39000
O198        O  0.22604910  0.77601142  0.54780112    -0.39700
O199        O  0.21027194  0.69679667  0.52659039    -0.39800
C200        C  0.13620543  0.72083117  0.39446821    -0.12100
C201        C  0.15635814  0.74967510  0.42127059     0.04900
C202        C  0.18590061  0.74330571  0.41371765    -0.07400
C203        C  0.19487693  0.70529272  0.38225749    -0.08100
C204        C  0.17490297  0.67497029  0.35661653    -0.02700
C205        C  0.14528223  0.68386404  0.36187598     0.04100
N206        N  0.12432908  0.65304253  0.33671510     0.66700
H207        H  0.11345880  0.72494831  0.40032993     0.15600
H208        H  0.21768255  0.70025713  0.37706041     0.15300
N209        N  0.20693136  0.77677816  0.43636094     0.74400
O210        O  0.11482425  0.61057731  0.35174717    -0.39100
O211        O  0.11116979  0.67370990  0.30474928    -0.39000
O212        O  0.22937685  0.75592174  0.45286831    -0.39700
O213        O  0.20635641  0.82664645  0.43076888    -0.39800
C214        C  0.37765436  0.81766607  0.96774360    -0.12100
C215        C  0.36437061  0.80046370  0.00545134     0.04900
C216        C  0.36965367  0.83034175  0.04538185    -0.07400
C217        C  0.38630286  0.87698588  0.04631080    -0.08100
C218        C  0.39848729  0.89411349  0.00841419    -0.02700
C219        C  0.39459781  0.86376294  0.96909626     0.04100
N220        N  0.40732543  0.88018728  0.93007570     0.66700
H221        H  0.37472766  0.79571819  0.93662699     0.15600
H222        H  0.38975827  0.90008669  0.57665426     0.15300
N223        N  0.35857939  0.81453939  0.08553726     0.74400
O224        O  0.43280685  0.86630113  0.92224687    -0.39100
O225        O  0.39488748  0.91475911  0.40705776    -0.39000
O226        O  0.37430383  0.78587123  0.10973573    -0.39700
O227        O  0.33895828  0.84317313  0.60224588    -0.39800
C228        C  0.28760023  0.61113435  0.05672005    -0.12100
C229        C  0.30036580  0.66158985  0.06592387     0.04900
C230        C  0.29650771  0.68634510  0.10782220    -0.07400
C231        C  0.27871406  0.66266285  0.13759382    -0.08100
C232        C  0.26406760  0.61493201  0.12642524    -0.02700
C233        C  0.26946877  0.58812878  0.08599379     0.04100
N234        N  0.25631435  0.53784896  0.07359406     0.66700
H235        H  0.29074139  0.58982199  0.02565776     0.15600
H236        H  0.27477931  0.68386932  0.16846472     0.15300
N237        N  0.30862697  0.73718509  0.12014478     0.74400
O238        O  0.23439282  0.53688988  0.04804807    -0.39100
O239        O  0.27020478  0.49498746  0.07953263    -0.39000
O240        O  0.29305931  0.77844107  0.11603464    -0.39700
O241        O  0.32935153  0.73869648  0.14790636    -0.39800
C242        C  0.30735565  0.61720520  0.39922465    -0.12100
C243        C  0.30953446  0.67258056  0.40826581     0.04900
C244        C  0.29950720  0.70810626  0.37636465    -0.07400
C245        C  0.28487962  0.68788908  0.33823444    -0.08100
C246        C  0.28066103  0.63233454  0.33063657    -0.02700
C247        C  0.29361673  0.59679217  0.36064602     0.04100
N248        N  0.29116902  0.53983733  0.35440127     0.66700
H249        H  0.31547980  0.58943297  0.42311523     0.15600
H250        H  0.27543017  0.71596245  0.31566831     0.15300
N251        N  0.30181325  0.76489869  0.38391661     0.74400
O252        O  0.31125297  0.51349620  0.33685067    -0.39100
O253        O  0.27220779  0.51532462  0.37404998    -0.39000
O254        O  0.32291850  0.78949257  0.36975029    -0.39700
O255        O  0.28435692  0.78963518  0.40820517    -0.39800
C256        C  0.34453485  0.75330196  0.50055946     0.80400
N257        N  0.33709109  0.73411635  0.95940765    -0.77900
C258        C  0.31906140  0.69201460  0.95282698     0.82800
N259        N  0.30820033  0.66908322  0.98782610    -0.77800
C260        C  0.31472217  0.68760471  0.52938154     0.81300
N261        N  0.33295068  0.73022925  0.53569251    -0.79600
C262        C  0.11435793  0.83617514  0.49779658     0.80400
N263        N  0.12446564  0.81353945  0.96023590    -0.77900
C264        C  0.14686772  0.77846331  0.96139836     0.82800
N265        N  0.15881255  0.76513046  0.00048480    -0.77800
C266        C  0.14882590  0.78645032  0.53841979     0.82900
N267        N  0.12653576  0.82196425  0.53689571    -0.79600
C268        C  0.29343889  0.27454339  0.49317870     0.80400
N269        N  0.28258204  0.29155782  0.95429661    -0.77900
C270        C  0.25965632  0.32536348  0.95242545     0.82800
N271        N  0.24741396  0.34294616  0.99022586    -0.77800
C272        C  0.25839482  0.32749342  0.52975070     0.82900
N273        N  0.28139019  0.29334692  0.53082543    -0.79600
N274        N  0.46426067  0.97756245  0.50287600    -0.36400
N275        N  0.41186746  0.04224766  0.50774532    -0.57000
N276        N  0.44594073  0.13812367  0.49764555    -0.36400
N277        N  0.49860809  0.07395855  0.49915235    -0.57000
C278        C  0.44533000  0.94041848  0.51456528     0.27200
C279        C  0.49090948  0.95709471  0.51000676     0.27200
C280        C  0.42010786  0.16052378  0.50632388     0.27200
C281        C  0.46582878  0.17733176  0.50317298     0.27200
C282        C  0.40005413  0.99293573  0.50357686     0.35800
C283        C  0.39031211  0.07766956  0.50046618     0.35800
C284        C  0.01944074  0.03696445  0.49224138     0.35800
C285        C  0.00989917  0.12189662  0.49056592     0.35800
C286        C  0.46006286  0.89556370  0.52894086    -0.21700
C287        C  0.48886013  0.90607966  0.52606159    -0.21700
C288        C  0.42352813  0.21482687  0.51673159    -0.21700
C289        C  0.45237346  0.22541404  0.51487084    -0.21700
C290        C  0.37073707  0.99704703  0.49447646    -0.22800
C291        C  0.36455784  0.05082768  0.49251496    -0.22800
C292        C  0.04426157  0.06155896  0.47973113    -0.22800
C293        C  0.03822763  0.11550958  0.47878478    -0.22800
C294        C  0.41514938  0.94434241  0.50952421    -0.18100
C295        C  0.01692955  0.98187118  0.49998481    -0.18100
C296        C  0.49556169  0.17164401  0.49585682    -0.18100
C297        C  0.39334174  0.13398479  0.50285409    -0.18100
H298        H  0.45099700  0.85877853  0.53981116     0.14800
H299        H  0.00627930  0.87891699  0.53435189     0.14800
H300        H  0.40694799  0.24394041  0.52463149     0.14800
H301        H  0.46224446  0.26430684  0.52103462     0.14800
H302        H  0.35539416  0.96470653  0.48984463     0.13100
H303        H  0.34351597  0.06818179  0.48612007     0.13100
H304        H  0.06468730  0.04270597  0.47268128     0.13100
H305        H  0.05305674  0.14652262  0.47074028     0.13100
H306        H  0.45927624  0.01273077  0.48819373     0.26300
H307        H  0.44949158  0.09957543  0.48635107     0.26300
C308        C  0.05478289  0.37476993  0.49495851     0.80400
N309        N  0.06734712  0.39349049  0.95893821    -0.77900
C310        C  0.08135014  0.44133480  0.96178848     0.82800
N311        N  0.08273219  0.46948067  0.00025626    -0.77800
C312        C  0.07140543  0.45120859  0.53653758     0.82900
N313        N  0.05758937  0.40336575  0.53391579    -0.79600
O314        O  0.20664563  0.60461701  0.83713903    -0.80000
O315        O  0.17148828  0.52388086  0.65631717    -0.80000
O316        O  0.20512207  0.69081543  0.72121583    -0.80000
O317        O  0.15104630  0.51577621  0.79667535    -0.79900
O318        O  0.18037889  0.62653963  0.68510314    -0.80100
O319        O  0.18750950  0.50410995  0.84293069    -0.80000
O320        O  0.14424920  0.52660754  0.71204201    -0.80000
O321        O  0.17804080  0.63692618  0.78477180    -0.80000
C322        C  0.18613288  0.63544442  0.82472012     1.09700
C323        C  0.14670670  0.52415482  0.67162390     1.09600
C324        C  0.18734740  0.67660573  0.69075562     1.09800
C325        C  0.16056737  0.50745376  0.83469134     1.09600
O326        O  0.23370598  0.46300558  0.78948090    -0.80000
O327        O  0.21922247  0.57376755  0.63582424    -0.80000
O328        O  0.23894146  0.64424463  0.78345401    -0.80000
O329        O  0.18778295  0.44087269  0.69522250    -0.79900
O330        O  0.22699201  0.48789083  0.68680264    -0.80000
O331        O  0.25574433  0.56396424  0.78750683    -0.80000
O332        O  0.19085331  0.42792623  0.78523052    -0.79900
O333        O  0.24062139  0.60903568  0.69592392    -0.80000
Co334      Co  0.22064218  0.53401425  0.81070640     1.51500
Co335      Co  0.20525773  0.55597355  0.68998611     1.51700
Co336      Co  0.20711079  0.61956686  0.74090284     1.51600
Co337      Co  0.16995718  0.48177993  0.74710116     1.51500
O338        O  0.19952089  0.54192644  0.75257024    -1.41900
C339        C  0.21724254  0.42492054  0.79722763     1.09700
C340        C  0.24040108  0.59822527  0.65393354     1.09800
C341        C  0.25872428  0.61322183  0.79675063     1.09700
C342        C  0.21256777  0.44548641  0.67896034     1.09700
C343        C  0.09397136  0.52881861  0.57658872    -0.12100
C344        C  0.08110643  0.47788773  0.57860332     0.04900
C345        C  0.08521706  0.44928521  0.61725235    -0.07400
C346        C  0.10521156  0.46793092  0.64944754    -0.08100
C347        C  0.12122968  0.51417545  0.64344845    -0.02700
C348        C  0.11445046  0.54639481  0.60821633     0.04100
N349        N  0.12874324  0.59623878  0.60374287     0.66700
H350        H  0.09024064  0.55287531  0.54822222     0.15600
H351        H  0.10999191  0.44370618  0.67743866     0.15300
N352        N  0.07186578  0.39869310  0.62245235     0.74400
O353        O  0.14938001  0.59915545  0.57838074    -0.39100
O354        O  0.12179024  0.63669636  0.62718917    -0.39000
O355        O  0.08676831  0.35628765  0.61953153    -0.39700
O356        O  0.04772936  0.39748205  0.63981854    -0.39800
C357        C  0.12708679  0.48167843  0.94224115    -0.12100
C358        C  0.10061210  0.45860073  0.92795071     0.04900
C359        C  0.09360498  0.45435070  0.88293439    -0.07400
C360        C  0.11312381  0.47237154  0.85325895    -0.08100
C361        C  0.13974376  0.49460513  0.86764781    -0.02700
C362        C  0.14647264  0.49990472  0.91269202     0.04100
N363        N  0.17251554  0.52474769  0.92903985     0.66700
H364        H  0.13297136  0.48554149  0.97682592     0.15600
H365        H  0.10755516  0.46791423  0.81861026     0.15300
N366        N  0.06665781  0.43329391  0.86671897     0.74400
O367        O  0.17308464  0.57493236  0.93636659    -0.39100
O368        O  0.19284160  0.49610487  0.94371107    -0.39000
O369        O  0.04524593  0.46445671  0.86392983    -0.39700
O370        O  0.06630467  0.38944900  0.84459444    -0.39800
C371        C  0.03925507  0.29363558  0.53270240    -0.12100
C372        C  0.04058662  0.32136082  0.49362323     0.04900
C373        C  0.02858931  0.29693509  0.95461861    -0.07400
C374        C  0.01462807  0.24748616  0.95577335    -0.08100
C375        C  0.51272302  0.22126521  0.49497590    -0.02700
C376        C  0.52577253  0.24377709  0.53346013     0.04100
N377        N  0.52515843  0.21649650  0.57355645     0.66700
H378        H  0.04881976  0.31046510  0.56291843     0.15600
H379        H  0.00467091  0.22988281  0.92601825     0.15300
N380        N  0.02966850  0.32191952  0.91364176     0.74400
O381        O  0.54383229  0.18102925  0.58180711    -0.39100
O382        O  0.50404593  0.22292103  0.59796506    -0.39000
O383        O  0.04401340  0.29972385  0.88365053    -0.39700
O384        O  0.01107735  0.35700944  0.90404807    -0.39800
C385        C  0.32843967  0.21755689  0.53527856    -0.12100
C386        C  0.31855969  0.23668009  0.49460340     0.04900
C387        C  0.33345809  0.21968854  0.95646604    -0.07400
C388        C  0.35743775  0.18580972  0.96011589    -0.08100
C389        C  0.36701422  0.16764652  0.50065632    -0.02700
C390        C  0.35237646  0.18327940  0.53841306     0.04100
N391        N  0.36215019  0.16559819  0.58022568     0.66700
H392        H  0.31770793  0.22938272  0.56498991     0.15600
H393        H  0.36877344  0.17356351  0.93099519     0.15300
N394        N  0.32519596  0.23673133  0.91377995     0.74400
O395        O  0.38082632  0.19247836  0.60239650    -0.39100
O396        O  0.35578021  0.11922678  0.59158250    -0.39000
O397        O  0.34297777  0.26263737  0.89290566    -0.39700
O398        O  0.30457624  0.21351843  0.89299340    -0.39800
C399        C  0.21664152  0.35709836  0.57483889    -0.12100
C400        C  0.24652089  0.35058081  0.57124278     0.04900
C401        C  0.26469450  0.36890833  0.60673654    -0.07400
C402        C  0.25310781  0.39715291  0.64276885    -0.08100
C403        C  0.22334063  0.40544689  0.64567862    -0.02700
C404        C  0.20495624  0.38270314  0.61214155     0.04100
N405        N  0.17443002  0.38770925  0.61440014     0.66700
H406        H  0.20225542  0.34230570  0.54847057     0.15600
H407        H  0.26761024  0.41409510  0.66813656     0.15300
N408        N  0.29516923  0.36211358  0.60561560     0.74400
O409        O  0.16085581  0.42054852  0.59098589    -0.39100
O410        O  0.16084609  0.35728771  0.63818701    -0.39000
O411        O  0.31050681  0.39982361  0.59344066    -0.39700
O412        O  0.30696222  0.32302696  0.62425148    -0.39800
C413        C  0.25730096  0.38318697  0.83932799    -0.12100
C414        C  0.22764978  0.38517584  0.82935705     0.04900
C415        C  0.20886922  0.36068397  0.85787311    -0.07400
C416        C  0.21964463  0.34170108  0.89792979    -0.08100
C417        C  0.24905908  0.34439088  0.90944331    -0.02700
C418        C  0.26813680  0.36373808  0.87893289     0.04100
N419        N  0.29826804  0.36907747  0.88919366     0.66700
H420        H  0.27214398  0.40141622  0.81795245     0.15600
H421        H  0.20493905  0.32465945  0.92014709     0.15300
N422        N  0.17883066  0.35556038  0.84724889     0.74400
O423        O  0.31611928  0.35490005  0.86081802    -0.39100
O424        O  0.30655954  0.39882041  0.92153469    -0.39000
O425        O  0.17042767  0.31845822  0.82059043    -0.39700
O426        O  0.16086176  0.37863428  0.87162780    -0.39800
C427        C  0.04924897  0.91899283  0.46001850    -0.12100
C428        C  0.04310625  0.94789669  0.49867982     0.04900
C429        C  0.06068136  0.94168072  0.53637926    -0.07400
C430        C  0.08381995  0.90551295  0.03551409    -0.08100
C431        C  0.08995227  0.87525080  0.49679974    -0.02700
C432        C  0.07247776  0.88308856  0.45855376     0.04100
N433        N  0.07730791  0.85403702  0.41822790     0.66700
H434        H  0.03557774  0.92368568  0.43096788     0.15600
H435        H  0.09692890  0.90117352  0.06514953     0.15300
N436        N  0.05481176  0.97115761  0.57614350     0.74400
O437        O  0.06419715  0.81054453  0.40954790    -0.39100
O438        O  0.08937298  0.87654495  0.88822961    -0.39000
O439        O  0.03866554  0.95132657  0.60339185    -0.39700
O440        O  0.06256595  0.01970647  0.08123904    -0.39800
C441        C  0.14336237  0.76853099  0.61793453    -0.12100
C442        C  0.16051928  0.76682006  0.58080699     0.04900
C443        C  0.18782530  0.74165286  0.58389188    -0.07400
C444        C  0.19638915  0.71595718  0.62168538    -0.08100
C445        C  0.17855179  0.71425191  0.65714207    -0.02700
C446        C  0.15225574  0.74251968  0.65616677     0.04100
N447        N  0.13446030  0.74493023  0.69328671     0.66700
H448        H  0.12255492  0.78827797  0.61680454     0.15600
H449        H  0.21690049  0.69518951  0.62254997     0.15300
N450        N  0.20707404  0.74023058  0.54863428     0.74400
O451        O  0.13947186  0.77992584  0.72354186    -0.39100
O452        O  0.11072820  0.72066986  0.69158189    -0.39000
O453        O  0.22614535  0.77652045  0.04792645    -0.39700
O454        O  0.21054249  0.69718743  0.02670935    -0.39800
C455        C  0.13619542  0.72080328  0.89470543    -0.12100
C456        C  0.15637123  0.74974934  0.92138742     0.04900
C457        C  0.18589813  0.74347937  0.91369527    -0.07400
C458        C  0.19484875  0.70547842  0.88220675    -0.08100
C459        C  0.17485437  0.67506558  0.85667535    -0.02700
C460        C  0.14523994  0.68384924  0.86208270     0.04100
N461        N  0.12426802  0.65294154  0.83703670     0.66700
H462        H  0.11346016  0.72484602  0.90067660     0.15600
H463        H  0.21764619  0.70051617  0.87690778     0.15300
N464        N  0.20693247  0.77705070  0.93621767     0.74400
O465        O  0.11472914  0.61060977  0.85224603    -0.39100
O466        O  0.11110542  0.67347658  0.80501334    -0.39000
O467        O  0.22935084  0.75625861  0.95286522    -0.39700
O468        O  0.20640135  0.82686099  0.93036281    -0.39800
C469        C  0.37768627  0.81747550  0.46765606    -0.12100
C470        C  0.36438443  0.80037075  0.50538264     0.04900
C471        C  0.36964983  0.83034291  0.54526925    -0.07400
C472        C  0.38630937  0.87696873  0.54614045    -0.08100
C473        C  0.39850422  0.89400407  0.50822265    -0.02700
C474        C  0.39462476  0.86357405  0.46894498     0.04100
N475        N  0.40733791  0.87993565  0.42989363     0.66700
H476        H  0.37476957  0.79545876  0.43656871     0.15600
H477        H  0.38976926  0.90002620  0.07685791     0.15300
N478        N  0.35850888  0.81470284  0.58542498     0.74400
O479        O  0.43282828  0.86609616  0.42207955    -0.39100
O480        O  0.39491547  0.91513552  0.90732020    -0.39000
O481        O  0.37424501  0.78634311  0.60985456    -0.39700
O482        O  0.33914302  0.84306530  0.10260679    -0.39800
C483        C  0.28756442  0.61116211  0.55677891    -0.12100
C484        C  0.30032809  0.66162561  0.56595192     0.04900
C485        C  0.29644276  0.68644269  0.60782042    -0.07400
C486        C  0.27862757  0.66280792  0.63759129    -0.08100
C487        C  0.26398967  0.61505839  0.62645112    -0.02700
C488        C  0.26941536  0.58820006  0.58605120     0.04100
N489        N  0.25626824  0.53790436  0.57368199     0.66700
H490        H  0.29072369  0.58980512  0.52574099     0.15600
H491        H  0.27467418  0.68405748  0.66843708     0.15300
N492        N  0.30855688  0.73729733  0.62010678     0.74400
O493        O  0.23438378  0.53689870  0.54806075    -0.39100
O494        O  0.27013340  0.49504680  0.57975833    -0.39000
O495        O  0.29297498  0.77853766  0.61601377    -0.39700
O496        O  0.32930605  0.73883915  0.64782465    -0.39800
C497        C  0.30733465  0.61735406  0.89918545    -0.12100
C498        C  0.30950500  0.67272874  0.90824481     0.04900
C499        C  0.29943204  0.70826117  0.87637892    -0.07400
C500        C  0.28478037  0.68804773  0.83826527    -0.08100
C501        C  0.28057800  0.63248985  0.83064867    -0.02700
C502        C  0.29356585  0.59694571  0.86062807     0.04100
N503        N  0.29111651  0.53999059  0.85438354     0.66700
H504        H  0.31548436  0.58957539  0.92305297     0.15600
H505        H  0.27530210  0.71612458  0.81572775     0.15300
N506        N  0.30171417  0.76505251  0.88395756     0.74400
O507        O  0.31118070  0.51365336  0.83677711    -0.39100
O508        O  0.27217250  0.51547220  0.87406407    -0.39000
O509        O  0.32281653  0.78968540  0.86982372    -0.39700
O510        O  0.28424598  0.78974412  0.90825388    -0.39800
C511        C  0.84452639  0.75338600  0.00057837     0.80400
N512        N  0.83711152  0.73397889  0.45940376    -0.77900
C513        C  0.81907617  0.69188956  0.45284381     0.82800
N514        N  0.80819534  0.66901328  0.48785297    -0.77800
C515        C  0.81473831  0.68762421  0.02936317     0.81300
N516        N  0.83295923  0.73025303  0.03569558    -0.79600
C517        C  0.61441844  0.83624191  0.99796307     0.80400
N518        N  0.62442488  0.81347569  0.46007901    -0.77900
C519        C  0.64680463  0.77834843  0.46127301     0.82800
N520        N  0.65870348  0.76496753  0.50037596    -0.77800
C521        C  0.64895424  0.78661836  0.03854087     0.82900
N522        N  0.62663953  0.82208314  0.03704638    -0.79600
C523        C  0.79351122  0.27468043  0.99310240     0.80400
N524        N  0.78251449  0.29140180  0.45436562    -0.77900
C525        C  0.75959385  0.32521291  0.45247233     0.82800
N526        N  0.74734661  0.34282011  0.49026104    -0.77800
C527        C  0.75847373  0.32760626  0.02970395     0.82900
N528        N  0.78146924  0.29346797  0.03075631    -0.79600
N529        N  0.96427745  0.97751146  0.00313400    -0.36400
N530        N  0.91189510  0.04234916  0.00785605    -0.57000
N531        N  0.94599498  0.13825344  0.99766083    -0.36400
N532        N  0.99864844  0.07393230  0.99925133    -0.57000
C533        C  0.94532070  0.94048041  0.01482909     0.27200
C534        C  0.99091204  0.95708950  0.01024391     0.27200
C535        C  0.92016788  0.16062527  0.00623695     0.27200
C536        C  0.96590354  0.17736874  0.00311531     0.27200
C537        C  0.90006049  0.99305174  0.00379638     0.35800
C538        C  0.89035018  0.07777764  0.00054274     0.35800
C539        C  0.51946817  0.03690482  0.99238760     0.35800
C540        C  0.50996189  0.12183784  0.99063038     0.35800
C541        C  0.96004038  0.89563156  0.02923838    -0.21700
C542        C  0.98884286  0.90610565  0.02634500    -0.21700
C543        C  0.92360167  0.21494862  0.01653164    -0.21700
C544        C  0.95245277  0.22549317  0.01469372    -0.21700
C545        C  0.87073885  0.99718012  0.99473691    -0.22800
C546        C  0.86457906  0.05095899  0.99268704    -0.22800
C547        C  0.54430374  0.06144308  0.97986527    -0.22800
C548        C  0.53829256  0.11539984  0.97887250    -0.22800
C549        C  0.91514164  0.94443638  0.00977387    -0.18100
C550        C  0.51693808  0.98181637  0.00018148    -0.18100
C551        C  0.99564159  0.17162173  0.99585964    -0.18100
C552        C  0.89339679  0.13410214  0.00280724    -0.18100
H553        H  0.95096111  0.85888152  0.04014018     0.14800
H554        H  0.50625302  0.87894178  0.03465401     0.14800
H555        H  0.90702786  0.24409935  0.02434742     0.14800
H556        H  0.96233109  0.26438273  0.02079234     0.14800
H557        H  0.85538016  0.96485495  0.99018623     0.13100
H558        H  0.84353942  0.06832457  0.98629287     0.13100
H559        H  0.56472443  0.04255259  0.97284070     0.13100
H560        H  0.55313622  0.14637975  0.97080720     0.13100
H561        H  0.95921373  0.01334338  0.98817423     0.26300
H562        H  0.94961420  0.09889359  0.98626862     0.26300
C563        C  0.55477317  0.37484147  0.99498102     0.80400
N564        N  0.56739489  0.39336251  0.45892604    -0.77900
C565        C  0.58143202  0.44117206  0.46178128     0.82800
N566        N  0.58280612  0.46933938  0.50023875    -0.77800
C567        C  0.57137722  0.45129330  0.03656991     0.82900
N568        N  0.55759271  0.40341639  0.03394802    -0.79600
O569        O  0.70671937  0.60454055  0.33710917    -0.80000
O570        O  0.67155739  0.52380106  0.15631619    -0.80000
O571        O  0.70526686  0.69070237  0.22119149    -0.80000
O572        O  0.65111529  0.51569954  0.29668376    -0.79900
O573        O  0.68047864  0.62648938  0.18507971    -0.80100
O574        O  0.68758228  0.50403803  0.34293422    -0.80000
O575        O  0.64431776  0.52653512  0.21204107    -0.80000
O576        O  0.67813598  0.63685479  0.28471676    -0.80000
C577        C  0.68620923  0.63536608  0.32467150     1.09700
C578        C  0.64677549  0.52407927  0.17162276     1.09600
C579        C  0.68747774  0.67654139  0.19074020     1.09800
C580        C  0.66064006  0.50736867  0.33469802     1.09600
O581        O  0.73376678  0.46289300  0.28949449    -0.80000
O582        O  0.71930033  0.57365273  0.13581396    -0.80000
O583        O  0.73903745  0.64411663  0.28343376    -0.80000
O584        O  0.68784688  0.44079082  0.19522387    -0.79900
O585        O  0.72705829  0.48780695  0.18682689    -0.80000
O586        O  0.75582137  0.56382858  0.28748893    -0.80000
O587        O  0.69090739  0.42784100  0.28522875    -0.79900
O588        O  0.74072404  0.60887206  0.19590948    -0.80000
Co589      Co  0.72071346  0.53391910  0.31069952     1.51500
Co590      Co  0.70533144  0.55588878  0.18998149     1.51700
Co591      Co  0.70721279  0.61945597  0.24087434     1.51600
Co592      Co  0.67002115  0.48170109  0.24710114     1.51500
O593        O  0.69959157  0.54183600  0.25256513    -1.41900
C594        C  0.71729368  0.42481859  0.29723475     1.09700
C595        C  0.74048930  0.59808404  0.15391628     1.09800
C596        C  0.75881258  0.61308179  0.29673091     1.09700
C597        C  0.71263594  0.44540562  0.17897549     1.09700
C598        C  0.59400865  0.52884552  0.07662496    -0.12100
C599        C  0.58111676  0.47793659  0.07863615     0.04900
C600        C  0.58523344  0.44930920  0.11727182    -0.07400
C601        C  0.60525994  0.46789561  0.14944450    -0.08100
C602        C  0.62129565  0.51411955  0.14344579    -0.02700
C603        C  0.61451213  0.54637014  0.10823502     0.04100
N604        N  0.62881667  0.59620470  0.10377318     0.66700
H605        H  0.59027407  0.55292910  0.04827524     0.15600
H606        H  0.61003736  0.44365540  0.17742726     0.15300
N607        N  0.57183003  0.39877052  0.12249407     0.74400
O608        O  0.64947132  0.59910136  0.07844188    -0.39100
O609        O  0.62187124  0.63666048  0.12722751    -0.39000
O610        O  0.58670170  0.35631721  0.11969761    -0.39700
O611        O  0.54765010  0.39766750  0.13973737    -0.39800
C612        C  0.62717715  0.48149199  0.44224387    -0.12100
C613        C  0.60070493  0.45840935  0.42794830     0.04900
C614        C  0.59369967  0.45416358  0.38293167    -0.07400
C615        C  0.61321149  0.47222033  0.35326092    -0.08100
C616        C  0.63982377  0.49448141  0.36765421    -0.02700
C617        C  0.64655704  0.49975162  0.41269965     0.04100
N618        N  0.67259359  0.52461207  0.42905562     0.66700
H619        H  0.63306060  0.48534575  0.47682951     0.15600
H620        H  0.60764278  0.46777357  0.31861169     0.15300
N621        N  0.56675912  0.43308005  0.36671257     0.74400
O622        O  0.67313856  0.57478725  0.43644465    -0.39100
O623        O  0.69293173  0.49597653  0.44369850    -0.39000
O624        O  0.54531466  0.46418122  0.36405308    -0.39700
O625        O  0.56642179  0.38929961  0.34449875    -0.39800
C626        C  0.53923762  0.29371245  0.03273862    -0.12100
C627        C  0.54061209  0.32139155  0.99364151     0.04900
C628        C  0.52848361  0.29699578  0.45462184    -0.07400
C629        C  0.51448509  0.24758516  0.45578505    -0.08100
C630        C  0.01282121  0.22121165  0.99497791    -0.02700
C631        C  0.02579181  0.24381567  0.03348983     0.04100
N632        N  0.02511717  0.21660267  0.07361192     0.66700
H633        H  0.54873672  0.31060752  0.06297791     0.15600
H634        H  0.50447539  0.23004052  0.42604743     0.15300
N635        N  0.52952421  0.32203644  0.41366342     0.74400
O636        O  0.04373720  0.18105883  0.08191798    -0.39100
O637        O  0.00399838  0.22316776  0.09799001    -0.39000
O638        O  0.54379477  0.29983136  0.38359100    -0.39700
O639        O  0.51096998  0.35724004  0.40418498    -0.39800
C640        C  0.82860105  0.21793075  0.03523710    -0.12100
C641        C  0.81862726  0.23680914  0.99452637     0.04900
C642        C  0.83349087  0.21981110  0.45657197    -0.07400
C643        C  0.85746197  0.18591615  0.46021319    -0.08100
C644        C  0.86707970  0.16777360  0.00059644    -0.02700
C645        C  0.85253116  0.18364667  0.03838012     0.04100
N646        N  0.86238331  0.16618137  0.08022231     0.66700
H647        H  0.81794457  0.22994065  0.06497184     0.15600
H648        H  0.86887261  0.17386961  0.43111569     0.15300
N649        N  0.82537159  0.23719999  0.41393577     0.74400
O650        O  0.88102348  0.19326284  0.10229526    -0.39100
O651        O  0.85609557  0.11983368  0.09173133    -0.39000
O652        O  0.84323351  0.26329197  0.39336122    -0.39700
O653        O  0.80483538  0.21410076  0.39285485    -0.39800
C654        C  0.71672298  0.35703389  0.07485662    -0.12100
C655        C  0.74660517  0.35064034  0.07121212     0.04900
C656        C  0.76478517  0.36902758  0.10667815    -0.07400
C657        C  0.75319377  0.39721371  0.14273213    -0.08100
C658        C  0.72342048  0.40538633  0.14569177    -0.02700
C659        C  0.70503730  0.38257604  0.11218416     0.04100
N660        N  0.67450899  0.38745241  0.11449767     0.66700
H661        H  0.70233557  0.34219015  0.04850845     0.15600
H662        H  0.76769582  0.41420681  0.16807817     0.15300
N663        N  0.79526602  0.36235276  0.10550760     0.74400
O664        O  0.66087710  0.42026448  0.09113034    -0.39100
O665        O  0.66098469  0.35698908  0.13832683    -0.39000
O666        O  0.81056801  0.40026831  0.09361225    -0.39700
O667        O  0.80709561  0.32313590  0.12391402    -0.39800
C668        C  0.75732550  0.38310898  0.33940487    -0.12100
C669        C  0.72768309  0.38506460  0.32936805     0.04900
C670        C  0.70888271  0.36051846  0.35782317    -0.07400
C671        C  0.71962485  0.34152752  0.39789642    -0.08100
C672        C  0.74902824  0.34425793  0.40948054    -0.02700
C673        C  0.76813049  0.36365017  0.37902292     0.04100
N674        N  0.79825427  0.36900914  0.38934274     0.66700
H675        H  0.77218328  0.40137090  0.31807113     0.15600
H676        H  0.70490351  0.32444297  0.42006778     0.15300
N677        N  0.67885882  0.35532817  0.34710998     0.74400
O678        O  0.81612930  0.35500491  0.36095271    -0.39100
O679        O  0.80651347  0.39861852  0.42178278    -0.39000
O680        O  0.67051057  0.31821301  0.32042379    -0.39700
O681        O  0.66084317  0.37837514  0.37142314    -0.39800
C682        C  0.54919241  0.91878374  0.96025520    -0.12100
C683        C  0.54309824  0.94781146  0.99888008     0.04900
C684        C  0.56073220  0.94173426  0.03653998    -0.07400
C685        C  0.58374826  0.90541593  0.53536005    -0.08100
C686        C  0.58997936  0.87524257  0.99698772    -0.02700
C687        C  0.57243372  0.88290935  0.95878624     0.04100
N688        N  0.57720284  0.85370639  0.91850836     0.66700
H689        H  0.53547521  0.92336396  0.93123765     0.15600
H690        H  0.59680473  0.90095600  0.56503107     0.15300
N691        N  0.55490679  0.97132255  0.07626919     0.74400
O692        O  0.56416558  0.81008644  0.91005673    -0.39100
O693        O  0.58960524  0.87695112  0.38810875    -0.39000
O694        O  0.53870616  0.95165840  0.10352591    -0.39700
O695        O  0.56239550  0.01957944  0.58117771    -0.39800
C696        C  0.64348190  0.76853995  0.11801145    -0.12100
C697        C  0.66066084  0.76697226  0.08091180     0.04900
C698        C  0.68798474  0.74187223  0.08398906    -0.07400
C699        C  0.69654368  0.71608496  0.12174474    -0.08100
C700        C  0.67868497  0.71424521  0.15716951    -0.02700
C701        C  0.65237263  0.74245770  0.15620784     0.04100
N702        N  0.63455821  0.74473985  0.19330795     0.66700
H703        H  0.62265989  0.78823320  0.11688444     0.15600
H704        H  0.71706615  0.69535279  0.12260268     0.15300
N705        N  0.70724933  0.74059456  0.04875241     0.74400
O706        O  0.63972723  0.77929740  0.22384117    -0.39100
O707        O  0.61070564  0.72088593  0.19138788    -0.39000
O708        O  0.72604905  0.77601171  0.54780083    -0.39700
O709        O  0.71027195  0.69679690  0.52659015    -0.39800
C710        C  0.63620533  0.72083118  0.39446820    -0.12100
C711        C  0.65635804  0.74967521  0.42127050     0.04900
C712        C  0.68590050  0.74330595  0.41371742    -0.07400
C713        C  0.69487681  0.70529303  0.38225719    -0.08100
C714        C  0.67490285  0.67497051  0.35661631    -0.02700
C715        C  0.64528211  0.68386407  0.36187593     0.04100
N716        N  0.62432896  0.65304237  0.33671525     0.66700
H717        H  0.61345871  0.72494819  0.40033005     0.15600
H718        H  0.71768243  0.70025754  0.37706001     0.15300
N719        N  0.70693126  0.77677843  0.43636069     0.74400
O720        O  0.61482438  0.61057697  0.35174738    -0.39100
O721        O  0.61116933  0.67370975  0.30474973    -0.39000
O722        O  0.72937679  0.75592204  0.45286797    -0.39700
O723        O  0.70635623  0.82664673  0.43076875    -0.39800
C724        C  0.87765479  0.81766508  0.96774378    -0.12100
C725        C  0.86437087  0.80046291  0.00545143     0.04900
C726        C  0.86965371  0.83034122  0.04538188    -0.07400
C727        C  0.88630277  0.87698550  0.04631080    -0.08100
C728        C  0.89848733  0.89411295  0.00841425    -0.02700
C729        C  0.89459815  0.86376208  0.96909642     0.04100
N730        N  0.90732600  0.88018615  0.93007597     0.66700
H731        H  0.87472830  0.79571695  0.93662725     0.15600
H732        H  0.88975771  0.90008725  0.57665401     0.15300
N733        N  0.85857936  0.81453891  0.08553726     0.74400
O734        O  0.93280738  0.86629952  0.92224735    -0.39100
O735        O  0.89488763  0.91475842  0.40705744    -0.39000
O736        O  0.87430365  0.78587033  0.10973562    -0.39700
O737        O  0.83895737  0.84317382  0.60224513    -0.39800
C738        C  0.78760059  0.61113365  0.05672027    -0.12100
C739        C  0.80036598  0.66158935  0.06592390     0.04900
C740        C  0.79650772  0.68634489  0.10782208    -0.07400
C741        C  0.77871406  0.66266271  0.13759372    -0.08100
C742        C  0.76406776  0.61493168  0.12642529    -0.02700
C743        C  0.76946912  0.58812816  0.08599404     0.04100
N744        N  0.75631490  0.53784809  0.07359454     0.66700
H745        H  0.79074191  0.58982110  0.02565811     0.15600
H746        H  0.77477915  0.68386942  0.16846446     0.15300
N747        N  0.80862668  0.73718522  0.12014438     0.74400
O748        O  0.73439353  0.53688849  0.04804822    -0.39100
O749        O  0.77020542  0.49498682  0.07953366    -0.39000
O750        O  0.79305899  0.77844095  0.11603303    -0.39700
O751        O  0.82935081  0.73869741  0.14790669    -0.39800
C752        C  0.80735533  0.61720526  0.39922472    -0.12100
C753        C  0.80953418  0.67258062  0.40826585     0.04900
C754        C  0.79950701  0.70810633  0.37636464    -0.07400
C755        C  0.78487947  0.68788917  0.33823439    -0.08100
C756        C  0.78066085  0.63233464  0.33063653    -0.02700
C757        C  0.79361645  0.59679224  0.36064605     0.04100
N758        N  0.79116868  0.53983742  0.35440133     0.66700
H759        H  0.81547941  0.58943302  0.42311534     0.15600
H760        H  0.77543010  0.71596254  0.31566820     0.15300
N761        N  0.80181311  0.76489875  0.38391658     0.74400
O762        O  0.81125272  0.51349613  0.33685112    -0.39100
O763        O  0.77220726  0.51532485  0.37404976    -0.39000
O764        O  0.82291836  0.78949256  0.36975019    -0.39700
O765        O  0.78435683  0.78963531  0.40820518    -0.39800
C766        C  0.84453457  0.75330211  0.50055942     0.80400
N767        N  0.83709131  0.73411569  0.95940769    -0.77900
C768        C  0.81906157  0.69201402  0.95282700     0.82800
N769        N  0.80820047  0.66908265  0.98782612    -0.77800
C770        C  0.81472200  0.68760478  0.52938159     0.81300
N771        N  0.83295048  0.73022937  0.53569251    -0.79600
C772        C  0.61435794  0.83617541  0.49779648     0.80400
N773        N  0.62446579  0.81354007  0.96023578    -0.77900
C774        C  0.64686787  0.77846394  0.96139826     0.82800
N775        N  0.65881272  0.76513114  0.00048470    -0.77800
C776        C  0.64882590  0.78645059  0.53841970     0.82900
N777        N  0.62653578  0.82196456  0.53689562    -0.79600
C778        C  0.79343903  0.27454372  0.49317871     0.80400
N779        N  0.78258221  0.29155812  0.95429653    -0.77900
C780        C  0.75965653  0.32536388  0.95242546     0.82800
N781        N  0.74741422  0.34294651  0.99022592    -0.77800
C782        C  0.75839494  0.32749363  0.52975080     0.82900
N783        N  0.78139031  0.29334713  0.53082547    -0.79600
N784        N  0.96426051  0.97756238  0.50287601    -0.36400
N785        N  0.91186740  0.04224767  0.50774516    -0.57000
N786        N  0.94594084  0.13812327  0.49764554    -0.36400
N787        N  0.99860811  0.07395811  0.49915269    -0.57000
C788        C  0.94532979  0.94041832  0.51456524     0.27200
C789        C  0.99090929  0.95709431  0.51000694     0.27200
C790        C  0.92010797  0.16052374  0.50632374     0.27200
C791        C  0.96582892  0.17733148  0.50317306     0.27200
C792        C  0.90005401  0.99293578  0.50357669     0.35800
C793        C  0.89031210  0.07766968  0.50046599     0.35800
C794        C  0.51944074  0.03696498  0.49224089     0.35800
C795        C  0.50989904  0.12189709  0.49056545     0.35800
C796        C  0.96006255  0.89556343  0.52894085    -0.21700
C797        C  0.98885984  0.90607924  0.52606170    -0.21700
C798        C  0.92352829  0.21482685  0.51673135    -0.21700
C799        C  0.95237364  0.22541387  0.51487074    -0.21700
C800        C  0.87073695  0.99704723  0.49447624    -0.22800
C801        C  0.86455780  0.05082792  0.49251475    -0.22800
C802        C  0.54426148  0.06155958  0.47973039    -0.22800
C803        C  0.53822746  0.11551017  0.47878404    -0.22800
C804        C  0.91514918  0.94434242  0.50952407    -0.18100
C805        C  0.51692967  0.98187170  0.49998445    -0.18100
C806        C  0.99556185  0.17164358  0.49585712    -0.18100
C807        C  0.89334181  0.13398487  0.50285390    -0.18100
H808        H  0.95099661  0.85877828  0.53981107     0.14800
H809        H  0.50627964  0.87891754  0.53435173     0.14800
H810        H  0.90694817  0.24394051  0.52463110     0.14800
H811        H  0.96224468  0.26430666  0.52103450     0.14800
H812        H  0.85539400  0.96470681  0.48984439     0.13100
H813        H  0.84351596  0.06818212  0.48611984     0.13100
H814        H  0.56468720  0.04270666  0.47268038     0.13100
H815        H  0.55305649  0.14652327  0.47073940     0.13100
H816        H  0.95927640  0.01272907  0.48819436     0.26300
H817        H  0.94949149  0.09957690  0.48635164     0.26300
C818        C  0.55478270  0.37477043  0.49495832     0.80400
N819        N  0.56734671  0.39349150  0.95893783    -0.77900
C820        C  0.58134964  0.44133590  0.96178814     0.82800
N821        N  0.58273170  0.46948169  0.00025596    -0.77800
C822        C  0.57140528  0.45120902  0.53653744     0.82900
N823        N  0.55758923  0.40336618  0.53391563    -0.79600
O824        O  0.70664557  0.60461727  0.83713901    -0.80000
O825        O  0.67148835  0.52388082  0.65631708    -0.80000
O826        O  0.70512209  0.69081552  0.72121572    -0.80000
O827        O  0.65104619  0.51577653  0.79667515    -0.79900
O828        O  0.68037899  0.62653966  0.68510293    -0.80100
O829        O  0.68750930  0.50411030  0.84293067    -0.80000
O830        O  0.64424920  0.52660763  0.71204182    -0.80000
O831        O  0.67804078  0.63692645  0.78477175    -0.80000
C832        C  0.68613286  0.63544473  0.82472008     1.09700
C833        C  0.64670675  0.52415486  0.67162373     1.09600
C834        C  0.68734748  0.67660578  0.69075543     1.09800
C835        C  0.66056718  0.50745420  0.83469119     1.09600
O836        O  0.73370583  0.46300574  0.78948096    -0.80000
O837        O  0.71922260  0.57376734  0.63582425    -0.80000
O838        O  0.73894146  0.64424470  0.78345399    -0.80000
O839        O  0.68778294  0.44087269  0.69522256    -0.79900
O840        O  0.72699204  0.48789076  0.68680281    -0.80000
O841        O  0.75574425  0.56396426  0.78750685    -0.80000
O842        O  0.69085317  0.42792642  0.78523065    -0.79900
O843        O  0.74062139  0.60903567  0.69592398    -0.80000
Co844      Co  0.72064206  0.53401443  0.81070642     1.51500
Co845      Co  0.70525778  0.55597352  0.68998610     1.51700
Co846      Co  0.70711077  0.61956698  0.74090281     1.51600
Co847      Co  0.66995712  0.48178007  0.74710111     1.51500
O848        O  0.69952083  0.54192659  0.75257022    -1.41900
C849        C  0.71724240  0.42492073  0.79722774     1.09700
C850        C  0.74040117  0.59822513  0.65393362     1.09800
C851        C  0.75872426  0.61322183  0.79675063     1.09700
C852        C  0.71256779  0.44548636  0.67896047     1.09700
C853        C  0.59397138  0.52881890  0.57658857    -0.12100
C854        C  0.58110636  0.47788809  0.57860318     0.04900
C855        C  0.58521698  0.44928554  0.61725220    -0.07400
C856        C  0.60521155  0.46793112  0.64944734    -0.08100
C857        C  0.62122975  0.51417555  0.64344822    -0.02700
C858        C  0.61445055  0.54639495  0.60821612     0.04100
N859        N  0.62874343  0.59623882  0.60374263     0.66700
H860        H  0.59024068  0.55287564  0.54822209     0.15600
H861        H  0.60999187  0.44370636  0.67743847     0.15300
N862        N  0.57186559  0.39869354  0.62245225     0.74400
O863        O  0.64938022  0.59915531  0.57838051    -0.39100
O864        O  0.62179047  0.63669650  0.62718885    -0.39000
O865        O  0.58676805  0.35628800  0.61953155    -0.39700
O866        O  0.54772915  0.39748271  0.63981840    -0.39800
C867        C  0.62708619  0.48168011  0.94224090    -0.12100
C868        C  0.60061162  0.45860193  0.92795040     0.04900
C869        C  0.59360471  0.45435124  0.88293403    -0.07400
C870        C  0.61312364  0.47237183  0.85325863    -0.08100
C871        C  0.63974347  0.49460581  0.86764757    -0.02700
C872        C  0.64647213  0.49990613  0.91269180     0.04100
N873        N  0.67251490  0.52474958  0.92903966     0.66700
H874        H  0.63297062  0.48554368  0.97682570     0.15600
H875        H  0.60755516  0.46791399  0.81860991     0.15300
N876        N  0.56665769  0.43329391  0.86671849     0.74400
O877        O  0.67308390  0.57493440  0.93636556    -0.39100
O878        O  0.69284090  0.49610722  0.94371167    -0.39000
O879        O  0.54524572  0.46445643  0.86392876    -0.39700
O880        O  0.56630483  0.38944873  0.84459432    -0.39800
C881        C  0.53925505  0.29363587  0.53270208    -0.12100
C882        C  0.54058641  0.32136134  0.49362300     0.04900
C883        C  0.52858908  0.29693572  0.95461832    -0.07400
C884        C  0.51462795  0.24748668  0.95577314    -0.08100
C885        C  0.01272324  0.22126471  0.49497618    -0.02700
C886        C  0.02577255  0.24377682  0.53346048     0.04100
N887        N  0.02515821  0.21649651  0.57355691     0.66700
H888        H  0.54881990  0.31046521  0.56291806     0.15600
H889        H  0.50467073  0.22988329  0.92601811     0.15300
N890        N  0.52966814  0.32192012  0.91364144     0.74400
O891        O  0.04383197  0.18102921  0.58180793    -0.39100
O892        O  0.00404564  0.22292144  0.59796533    -0.39000
O893        O  0.54401281  0.29972426  0.88365003    -0.39700
O894        O  0.51107703  0.35701020  0.90404796    -0.39800
C895        C  0.82843991  0.21755737  0.53527852    -0.12100
C896        C  0.81855981  0.23668037  0.49460336     0.04900
C897        C  0.83345804  0.21968828  0.95646571    -0.07400
C898        C  0.85743764  0.18580926  0.96011546    -0.08100
C899        C  0.86701432  0.16764673  0.50065618    -0.02700
C900        C  0.85237668  0.18327984  0.53841298     0.04100
N901        N  0.86215049  0.16559875  0.58022560     0.66700
H902        H  0.81770827  0.22938340  0.56498993     0.15600
H903        H  0.86877326  0.17356299  0.93099471     0.15300
N904        N  0.82519584  0.23673104  0.91377963     0.74400
O905        O  0.88082673  0.19247887  0.60239623    -0.39100
O906        O  0.85578043  0.11922747  0.59158261    -0.39000
O907        O  0.84297769  0.26263666  0.89290509    -0.39700
O908        O  0.80457590  0.21351848  0.89299335    -0.39800
C909        C  0.71664162  0.35709835  0.57483901    -0.12100
C910        C  0.74652099  0.35058087  0.57124292     0.04900
C911        C  0.76469457  0.36890830  0.60673674    -0.07400
C912        C  0.75310786  0.39715285  0.64276905    -0.08100
C913        C  0.72334068  0.40544680  0.64567879    -0.02700
C914        C  0.70495631  0.38270303  0.61214170     0.04100
N915        N  0.67443008  0.38770896  0.61440033     0.66700
H916        H  0.70225553  0.34230570  0.54847067     0.15600
H917        H  0.76761028  0.41409501  0.66813680     0.15300
N918        N  0.79516930  0.36211347  0.60561586     0.74400
O919        O  0.66085580  0.42054814  0.59098608    -0.39100
O920        O  0.66084623  0.35728736  0.63818724    -0.39000
O921        O  0.81050693  0.39982342  0.59344090    -0.39700
O922        O  0.80696224  0.32302684  0.62425180    -0.39800
C923        C  0.75730089  0.38318708  0.83932789    -0.12100
C924        C  0.72764968  0.38517609  0.82935718     0.04900
C925        C  0.70886918  0.36068441  0.85787344    -0.07400
C926        C  0.71964471  0.34170154  0.89793007    -0.08100
C927        C  0.74905919  0.34439122  0.90944336    -0.02700
C928        C  0.76813683  0.36373825  0.87893275     0.04100
N929        N  0.79826810  0.36907754  0.88919330     0.66700
H930        H  0.77214387  0.40141618  0.81795220     0.15600
H931        H  0.70493918  0.32466007  0.92014752     0.15300
N932        N  0.67883058  0.35556105  0.84724951     0.74400
O933        O  0.81611924  0.35489964  0.86081765    -0.39100
O934        O  0.80655972  0.39882088  0.92153402    -0.39000
O935        O  0.67042738  0.31845857  0.82059152    -0.39700
O936        O  0.66086185  0.37863549  0.87162841    -0.39800
C937        C  0.54924902  0.91899313  0.46001826    -0.12100
C938        C  0.54310641  0.94789735  0.49867946     0.04900
C939        C  0.56068159  0.94168159  0.53637887    -0.07400
C940        C  0.58382001  0.90551353  0.03551392    -0.08100
C941        C  0.58995231  0.87525116  0.49679958    -0.02700
C942        C  0.57247773  0.88308868  0.45855363     0.04100
N943        N  0.57730768  0.85403660  0.41822794     0.66700
H944        H  0.53557772  0.92368574  0.43096768     0.15600
H945        H  0.59692894  0.90117412  0.06514938     0.15300
N946        N  0.55481205  0.97115874  0.57614302     0.74400
O947        O  0.56419691  0.81054399  0.40954852    -0.39100
O948        O  0.58937328  0.87654605  0.88822946    -0.39000
O949        O  0.53866591  0.95132785  0.60339155    -0.39700
O950        O  0.56256620  0.01970683  0.08123895    -0.39800
C951        C  0.64336246  0.76853129  0.61793449    -0.12100
C952        C  0.66051932  0.76682034  0.58080689     0.04900
C953        C  0.68782533  0.74165303  0.58389170    -0.07400
C954        C  0.69638919  0.71595722  0.62168514    -0.08100
C955        C  0.67855186  0.71425198  0.65714188    -0.02700
C956        C  0.65225585  0.74251988  0.65616668     0.04100
N957        N  0.63446045  0.74493040  0.69328665     0.66700
H958        H  0.62255504  0.78827833  0.61680457     0.15600
H959        H  0.71690049  0.69518945  0.62254965     0.15300
N960        N  0.70707404  0.74023080  0.54863407     0.74400
O961        O  0.63947188  0.77992625  0.72354166    -0.39100
O962        O  0.61072846  0.72066963  0.69158200    -0.39000
O963        O  0.72614523  0.77652242  0.04792641    -0.39700
O964        O  0.71054322  0.69718875  0.02670951    -0.39800
C965        C  0.63619550  0.72080373  0.89470545    -0.12100
C966        C  0.65637133  0.74974988  0.92138732     0.04900
C967        C  0.68589821  0.74347994  0.91369507    -0.07400
C968        C  0.69484880  0.70547892  0.88220657    -0.08100
C969        C  0.67485440  0.67506599  0.85667528    -0.02700
C970        C  0.64523998  0.68384962  0.86208275     0.04100
N971        N  0.62426802  0.65294182  0.83703690     0.66700
H972        H  0.61346025  0.72484645  0.90067671     0.15600
H973        H  0.71764623  0.70051668  0.87690751     0.15300
N974        N  0.70693257  0.77705136  0.93621734     0.74400
O975        O  0.61472929  0.61060998  0.85224630    -0.39100
O976        O  0.61110520  0.67347689  0.80501375    -0.39000
O977        O  0.72935096  0.75625938  0.95286491    -0.39700
O978        O  0.70640139  0.82686165  0.93036243    -0.39800
C979        C  0.87768614  0.81747538  0.46765605    -0.12100
C980        C  0.86438413  0.80037091  0.50538258     0.04900
C981        C  0.86964937  0.83034331  0.54526911    -0.07400
C982        C  0.88630893  0.87696909  0.54614027    -0.08100
C983        C  0.89850395  0.89400415  0.50822252    -0.02700
C984        C  0.89462464  0.86357390  0.46894494     0.04100
N985        N  0.90733798  0.87993521  0.42989364     0.66700
H986        H  0.87476956  0.79545843  0.43656877     0.15600
H987        H  0.88976899  0.90002602  0.07685785     0.15300
N988        N  0.85850819  0.81470358  0.58542478     0.74400
O989        O  0.93282840  0.86609570  0.42207991    -0.39100
O990        O  0.89491631  0.91513459  0.90732036    -0.39000
O991        O  0.87424428  0.78634439  0.60985485    -0.39700
O992        O  0.83914313  0.84306507  0.10260690    -0.39800
C993        C  0.78756463  0.61116189  0.55677919    -0.12100
C994        C  0.80032803  0.66162564  0.56595202     0.04900
C995        C  0.79644256  0.68644293  0.60782040    -0.07400
C996        C  0.77862745  0.66280806  0.63759132    -0.08100
C997        C  0.76398978  0.61505826  0.62645130    -0.02700
C998        C  0.76941565  0.58819974  0.58605153     0.04100
N999        N  0.75626880  0.53790372  0.57368257     0.66700
H1000       H  0.79072405  0.58980476  0.52574136     0.15600
H1001       H  0.77467390  0.68405778  0.66843699     0.15300
N1002       N  0.80855634  0.73729792  0.62010653     0.74400
O1003       O  0.73438445  0.53689744  0.54806111    -0.39100
O1004       O  0.77013414  0.49504646  0.57975936    -0.39000
O1005       O  0.79297427  0.77853791  0.61601285    -0.39700
O1006       O  0.82930527  0.73884045  0.64782481    -0.39800
C1007       C  0.80733481  0.61735370  0.89918527    -0.12100
C1008       C  0.80950509  0.67272834  0.90824482     0.04900
C1009       C  0.79943204  0.70826091  0.87637910    -0.07400
C1010       C  0.78478032  0.68804763  0.83826543    -0.08100
C1011       C  0.78057801  0.63248976  0.83064866    -0.02700
C1012       C  0.79356597  0.59694550  0.86062786     0.04100
N1013       N  0.79111674  0.53999039  0.85438309     0.66700
H1014       H  0.81548460  0.58957493  0.92305265     0.15600
H1015       H  0.77530199  0.71612457  0.81572806     0.15300
N1016       N  0.80171415  0.76505223  0.88395792     0.74400
O1017       O  0.81118108  0.51365338  0.83677683    -0.39100
O1018       O  0.77217270  0.51547176  0.87406335    -0.39000
O1019       O  0.82281643  0.78968527  0.86982398    -0.39700
O1020       O  0.78424605  0.78974366  0.90825450    -0.39800
loop_ 
_geom_bond_atom_site_label_1 
_geom_bond_atom_site_label_2 
_geom_bond_distance 
_geom_bond_site_symmetry_2 
_ccdc_geom_bond_type 
C1            N6   1.370       .  A
C1          N257   1.363   1_554  A
C1          C215   1.498       .  S
N2            C3   1.352       .  A
N2          C256   1.363       .  A
C3            N4   1.351       .  A
C3          C243   1.481       .  S
N4          C260   1.359       .  A
C5            N6   1.368       .  A
C5          N259   1.359   1_554  A
C5          C229   1.498       .  S
C7           N12   1.364   1_556  A
C7          N263   1.361       .  A
C7          C176   1.491       .  S
N8            C9   1.356       .  A
N8          C262   1.362       .  A
C9           N10   1.354       .  A
C9          C201   1.473       .  S
N10         C266   1.356       .  A
C11          N12   1.360       .  A
C11         N265   1.356       .  A
C11         C187   1.489       .  S
C13          N18   1.364   1_556  A
C13         N269   1.357       .  A
C13         C131   1.498       .  S
N14          C15   1.356       .  A
N14         C268   1.357       .  A
C15          N16   1.363       .  A
C15         C162   1.483       .  S
N16         C272   1.364       .  A
C17          N18   1.363       .  A
C17         N271   1.364   1_554  A
C17         C145   1.495       .  S
N19          C24   1.350       .  A
N19          C23   1.350       .  A
N19          H51   1.043   1_564  S
N20          C27   1.350   1_545  A
N20          C28   1.350       .  A
N21          C26   1.351   1_556  A
N21          C25   1.351   1_556  A
N21          H52   1.042       .  S
N22         C539   1.349       .  A
N22         C540   1.349       .  A
C23          C31   1.386       .  A
C23          C39   1.411       .  A
C24          C32   1.388       .  A
C24         C550   1.413       .  A
C25          C33   1.387       .  A
C25          C42   1.413       .  A
C26          C41   1.415   1_554  A
C26          C34   1.388       .  A
C27          C39   1.411       .  A
C27          C35   1.387   1_554  A
C28          C42   1.411       .  A
C28          C36   1.386   1_554  A
C29         N532   1.349   1_455  A
C29          C37   1.386       .  A
C29          C40   1.410   1_546  A
C30         N532   1.349   1_455  A
C30          C38   1.386       .  A
C30         C551   1.410   1_455  A
C31          C32   1.375       .  A
C31          H43   1.082       .  S
C32         H554   1.082       .  S
C33          C34   1.374       .  A
C33          H45   1.082       .  S
C34          H46   1.082       .  S
C35          C36   1.373   1_565  A
C35          H47   1.082       .  S
C36          H48   1.082       .  S
C37          C38   1.373       .  A
C37          H49   1.082       .  S
C38          H50   1.082       .  S
C39         C218   1.478       .  S
C40         C173   1.479   1_554  S
C40         C534   1.413   1_455  A
C41         C120   1.479       .  S
C41         C540   1.410       .  A
C42         C134   1.481       .  S
H44         C542   1.082   1_455  S
C53          N58   1.366   1_556  A
C53         N309   1.368       .  A
C53         C117   1.489       .  S
N54          C55   1.362       .  A
N54         C308   1.368       .  A
C55          N56   1.345       .  A
C55         C103   1.475       .  S
N56         C312   1.345       .  A
C57          N58   1.357       .  A
C57         N311   1.345       .  A
C57          C89   1.481       .  S
O59          C67   1.278       .  A
O59         Co79   2.020       .  S
O60          C68   1.261       .  A
O60         Co80   2.001       .  S
O61          C69   1.264       .  A
O61         Co81   1.900       .  S
O62          C70   1.255       .  A
O62         Co82   1.943       .  S
O63          C69   1.295       .  A
O63         Co80   2.107       .  S
O64          C70   1.273       .  A
O64         Co79   2.025       .  S
O65          C68   1.246       .  A
O65         Co82   1.954       .  S
O66          C67   1.268       .  A
O66         Co81   1.974       .  S
C67         C204   1.469       .  S
C68          C92   1.457       .  S
C69         C190   1.467       .  S
C70         C106   1.471       .  S
O71          C84   1.260       .  A
O71         Co79   1.960       .  S
O72          C85   1.261       .  A
O72         Co80   1.875       .  S
O73          C86   1.265       .  A
O73         Co81   2.018       .  S
O74          C87   1.281       .  A
O74         Co82   2.049       .  S
O75          C87   1.266       .  A
O75         Co80   1.970       .  S
O76          C86   1.256       .  A
O76         Co79   1.970       .  S
O77          C84   1.272       .  A
O77         Co82   2.034       .  S
O78          C85   1.302       .  A
O78         Co81   2.126       .  S
Co79         O83   2.017       .  S
Co80         O83   1.990       .  S
Co81         O83   2.019       .  S
Co82         O83   2.040       .  S
C84         C159   1.491       .  S
C85         C232   1.481       .  S
C86         C246   1.493       .  S
C87         C148   1.493       .  S
C88          C89   1.413       .  A
C88          C93   1.393       .  A
C88          H95   1.084       .  S
C89          C90   1.413       .  A
C90          C91   1.398       .  A
C90          N97   1.428       .  S
C91          C92   1.400       .  A
C91          H96   1.084       .  S
C92          C93   1.397       .  A
C93          N94   1.428       .  S
N94          O98   1.262       .  A
N94          O99   1.260       .  A
N97         O101   1.262       .  A
N97         O100   1.262       .  A
C102        C103   1.411       .  A
C102        C107   1.393       .  A
C102        H109   1.084       .  S
C103        C104   1.404       .  A
C104        C105   1.398       .  A
C104        N111   1.427       .  S
C105        C106   1.409       .  A
C105        H110   1.084       .  S
C106        C107   1.404       .  A
C107        N108   1.430       .  S
N108        O112   1.262       .  A
N108        O113   1.262       .  A
N111        O115   1.261       .  A
N111        O114   1.262       .  A
C116        C117   1.410   1_554  A
C116        C631   1.398       .  A
C116        H123   1.081       .  S
C117        C373   1.416       .  A
C118        C119   1.400       .  A
C118        C372   1.416       .  A
C118        N125   1.427       .  S
C119        C885   1.397       .  A
C119        H124   1.084       .  S
C120        C121   1.403   1_556  A
C120        C884   1.397       .  A
C121        C626   1.398       .  A
C121        N122   1.429       .  S
N122        O126   1.262       .  A
N122        O127   1.262       .  A
N125        O129   1.262       .  A
N125        O128   1.262       .  A
C130        C131   1.412   1_554  A
C130        C135   1.402       .  A
C130        H137   1.083       .  S
C131        C387   1.425       .  A
C132        C133   1.399       .  A
C132        C386   1.425       .  A
C132        N139   1.429       .  S
C133        C389   1.393       .  A
C133        H138   1.084       .  S
C134        C135   1.403       .  A
C134        C388   1.394   1_554  A
C135        N136   1.429       .  S
N136        O140   1.262       .  A
N136        O141   1.262       .  A
N139        O143   1.262       .  A
N139        O142   1.262       .  A
C144        C145   1.407       .  A
C144        C149   1.409       .  A
C144        H151   1.084       .  S
C145        C146   1.414       .  A
C146        C147   1.406       .  A
C146        N153   1.429       .  S
C147        C148   1.405       .  A
C147        H152   1.084       .  S
C148        C149   1.414       .  A
C149        N150   1.429       .  S
N150        O154   1.262       .  A
N150        O155   1.262       .  A
N153        O157   1.262       .  A
N153        O156   1.262       .  A
C158        C159   1.403       .  A
C158        C163   1.400       .  A
C158        H165   1.084       .  S
C159        C160   1.417       .  A
C160        C161   1.407       .  A
C160        N167   1.429       .  S
C161        C162   1.403       .  A
C161        H166   1.084       .  S
C162        C163   1.414       .  A
C163        N164   1.432       .  S
N164        O168   1.262       .  A
N164        O169   1.262       .  A
N167        O171   1.261       .  A
N167        O170   1.262       .  A
C172        C173   1.397       .  A
C172        C177   1.399       .  A
C172        H179   1.084       .  S
C173        C174   1.403   1_556  A
C174        C430   1.399       .  A
C174        N181   1.429       .  S
C175        C429   1.399       .  A
C175        C431   1.410       .  A
C175        H180   1.083       .  S
C176        C177   1.420       .  A
C176        C430   1.410   1_556  A
C177        N178   1.429       .  S
N178        O182   1.262       .  A
N178        O438   1.262       .  A
N181        O440   1.262   1_565  A
N181        O184   1.262       .  A
O183        N433   1.262       .  A
O185        N436   1.262   1_545  A
C186        C187   1.412       .  A
C186        C191   1.409       .  A
C186        H193   1.083       .  S
C187        C188   1.415       .  A
C188        C189   1.390       .  A
C188        N195   1.427       .  S
C189        C190   1.393       .  A
C189        H194   1.083       .  S
C190        C191   1.408       .  A
C191        N192   1.430       .  S
N192        O196   1.262       .  A
N192        O197   1.262       .  A
N195        O454   1.262       .  A
N195        O453   1.262       .  A
O198        N450   1.262       .  A
O199        N450   1.262       .  A
C200        C201   1.405       .  A
C200        C205   1.404       .  A
C200        H207   1.084       .  S
C201        C202   1.410       .  A
C202        C203   1.395       .  A
C202        N209   1.431       .  S
C203        C204   1.399       .  A
C203        H208   1.085       .  S
C204        C205   1.409       .  A
C205        N206   1.428       .  S
N206        O210   1.262       .  A
N206        O211   1.262       .  A
N209        O213   1.262       .  A
N209        O212   1.262       .  A
C214        C215   1.413   1_556  A
C214        C219   1.397       .  A
C214        H221   1.083       .  S
C215        C216   1.419       .  A
C216        C217   1.401       .  A
C216        N223   1.422       .  S
C217        C218   1.394       .  A
C217        H477   1.084       .  S
C218        C219   1.401   1_554  A
C219        N220   1.429       .  S
N220        O224   1.262       .  A
N220        O480   1.262       .  A
H222        C472   1.084       .  S
N223        O482   1.262       .  A
N223        O226   1.262       .  A
O225        N475   1.262       .  A
O227        N478   1.262       .  A
C228        C229   1.408       .  A
C228        C233   1.397       .  A
C228        H235   1.084       .  S
C229        C230   1.417       .  A
C230        C231   1.405       .  A
C230        N237   1.422       .  S
C231        C232   1.399       .  A
C231        H236   1.084       .  S
C232        C233   1.411       .  A
C233        N234   1.430       .  S
N234        O238   1.262       .  A
N234        O239   1.261       .  A
N237        O241   1.261       .  A
N237        O240   1.262       .  A
C242        C243   1.400       .  A
C242        C247   1.400       .  A
C242        H249   1.084       .  S
C243        C244   1.410       .  A
C244        C245   1.406       .  A
C244        N251   1.429       .  S
C245        C246   1.409       .  A
C245        H250   1.084       .  S
C246        C247   1.419       .  A
C247        N248   1.430       .  S
N248        O252   1.262       .  A
N248        O253   1.262       .  A
N251        O255   1.262       .  A
N251        O254   1.262       .  A
C256        N261   1.370       .  A
C256        C470   1.498       .  S
N257        C258   1.353       .  A
C258        N259   1.351       .  A
C258        C498   1.481       .  S
C260        N261   1.368       .  A
C260        C484   1.498       .  S
C262        N267   1.364       .  A
C262        C431   1.491       .  S
N263        C264   1.356       .  A
C264        N265   1.354   1_556  A
C264        C456   1.473       .  S
C266        N267   1.360       .  A
C266        C442   1.489       .  S
C268        N273   1.364       .  A
C268        C386   1.498       .  S
N269        C270   1.356       .  A
C270        N271   1.363       .  A
C270        C417   1.483       .  S
C272        N273   1.363       .  A
C272        C400   1.495       .  S
N274        C279   1.352       .  A
N274        C278   1.351       .  A
N274        H306   1.023   1_565  S
N275        C282   1.350   1_545  A
N275        C283   1.350       .  A
N276        C281   1.352       .  A
N276        C280   1.353       .  A
N276        H307   1.022       .  S
N277        C794   1.350       .  A
N277        C795   1.349       .  A
C278        C286   1.386       .  A
C278        C294   1.411       .  A
C279        C805   1.413       .  A
C279        C287   1.388       .  A
C280        C288   1.387       .  A
C280        C297   1.413       .  A
C281        C296   1.415       .  A
C281        C289   1.388       .  A
C282        C294   1.411       .  A
C282        C290   1.387       .  A
C283        C297   1.411       .  A
C283        C291   1.386       .  A
C284        N787   1.350   1_455  A
C284        C292   1.386       .  A
C284        C295   1.410   1_545  A
C285        N787   1.349   1_455  A
C285        C293   1.386       .  A
C285        C806   1.410   1_455  A
C286        C287   1.375       .  A
C286        H298   1.082       .  S
C287        H809   1.082       .  S
C288        C289   1.374       .  A
C288        H300   1.082       .  S
C289        H301   1.082       .  S
C290        C291   1.373   1_565  A
C290        H302   1.082       .  S
C291        H303   1.082       .  S
C292        C293   1.373       .  A
C292        H304   1.082       .  S
C293        H305   1.082       .  S
C294        C473   1.478       .  S
C295        C428   1.480       .  S
C295        C789   1.413   1_455  A
C296        C375   1.479       .  S
C296        C795   1.410       .  A
C297        C389   1.481       .  S
H299        C797   1.082   1_455  S
C308        N313   1.366       .  A
C308        C372   1.489       .  S
N309        C310   1.362       .  A
C310        N311   1.345   1_556  A
C310        C358   1.475       .  S
C312        N313   1.357       .  A
C312        C344   1.481       .  S
O314        C322   1.278       .  A
O314       Co334   2.020       .  S
O315        C323   1.261       .  A
O315       Co335   2.001       .  S
O316        C324   1.264       .  A
O316       Co336   1.900       .  S
O317        C325   1.255       .  A
O317       Co337   1.943       .  S
O318        C324   1.295       .  A
O318       Co335   2.107       .  S
O319        C325   1.273       .  A
O319       Co334   2.025       .  S
O320        C323   1.246       .  A
O320       Co337   1.954       .  S
O321        C322   1.268       .  A
O321       Co336   1.974       .  S
C322        C459   1.469       .  S
C323        C347   1.457       .  S
C324        C445   1.467       .  S
C325        C361   1.471       .  S
O326        C339   1.260       .  A
O326       Co334   1.960       .  S
O327        C340   1.261       .  A
O327       Co335   1.875       .  S
O328        C341   1.265       .  A
O328       Co336   2.018       .  S
O329        C342   1.281       .  A
O329       Co337   2.049       .  S
O330        C342   1.266       .  A
O330       Co335   1.970       .  S
O331        C341   1.256       .  A
O331       Co334   1.970       .  S
O332        C339   1.272       .  A
O332       Co337   2.035       .  S
O333        C340   1.302       .  A
O333       Co336   2.126       .  S
Co334       O338   2.017       .  S
Co335       O338   1.990       .  S
Co336       O338   2.019       .  S
Co337       O338   2.040       .  S
C339        C414   1.491       .  S
C340        C487   1.481       .  S
C341        C501   1.493       .  S
C342        C403   1.493       .  S
C343        C344   1.413       .  A
C343        C348   1.393       .  A
C343        H350   1.084       .  S
C344        C345   1.413       .  A
C345        C346   1.398       .  A
C345        N352   1.428       .  S
C346        C347   1.400       .  A
C346        H351   1.084       .  S
C347        C348   1.397       .  A
C348        N349   1.428       .  S
N349        O353   1.262       .  A
N349        O354   1.260       .  A
N352        O356   1.262       .  A
N352        O355   1.262       .  A
C357        C358   1.411       .  A
C357        C362   1.393       .  A
C357        H364   1.084       .  S
C358        C359   1.404       .  A
C359        C360   1.398       .  A
C359        N366   1.427       .  S
C360        C361   1.409       .  A
C360        H365   1.084       .  S
C361        C362   1.404       .  A
C362        N363   1.430       .  S
N363        O367   1.262       .  A
N363        O368   1.262       .  A
N366        O370   1.261       .  A
N366        O369   1.262       .  A
C371        C372   1.410       .  A
C371        C886   1.398       .  A
C371        H378   1.081       .  S
C373        C374   1.400       .  A
C373        N380   1.426       .  S
C374        C630   1.397       .  A
C374        H379   1.084       .  S
C375        C629   1.397       .  A
C375        C376   1.403       .  A
C376        C881   1.398       .  A
C376        N377   1.429       .  S
N377        O381   1.262       .  A
N377        O382   1.262       .  A
N380        O384   1.262       .  A
N380        O383   1.262       .  A
C385        C386   1.412       .  A
C385        C390   1.402       .  A
C385        H392   1.083       .  S
C387        C388   1.399       .  A
C387        N394   1.429       .  S
C388        H393   1.084       .  S
C389        C390   1.403       .  A
C390        N391   1.429       .  S
N391        O395   1.262       .  A
N391        O396   1.262       .  A
N394        O398   1.262       .  A
N394        O397   1.262       .  A
C399        C400   1.407       .  A
C399        C404   1.409       .  A
C399        H406   1.084       .  S
C400        C401   1.414       .  A
C401        C402   1.406       .  A
C401        N408   1.429       .  S
C402        C403   1.405       .  A
C402        H407   1.084       .  S
C403        C404   1.414       .  A
C404        N405   1.429       .  S
N405        O409   1.262       .  A
N405        O410   1.262       .  A
N408        O412   1.262       .  A
N408        O411   1.262       .  A
C413        C414   1.403       .  A
C413        C418   1.400       .  A
C413        H420   1.084       .  S
C414        C415   1.417       .  A
C415        C416   1.407       .  A
C415        N422   1.429       .  S
C416        C417   1.402       .  A
C416        H421   1.084       .  S
C417        C418   1.414       .  A
C418        N419   1.432       .  S
N419        O423   1.262       .  A
N419        O424   1.262       .  A
N422        O426   1.261       .  A
N422        O425   1.262       .  A
C427        C428   1.397       .  A
C427        C432   1.399       .  A
C427        H434   1.084       .  S
C428        C429   1.403       .  A
C429        N436   1.429       .  S
C430        H435   1.083       .  S
C431        C432   1.420       .  A
C432        N433   1.429       .  S
N433        O437   1.262       .  A
N436        O439   1.262       .  A
C441        C442   1.412       .  A
C441        C446   1.409       .  A
C441        H448   1.083       .  S
C442        C443   1.415       .  A
C443        C444   1.390       .  A
C443        N450   1.427       .  S
C444        C445   1.393       .  A
C444        H449   1.083       .  S
C445        C446   1.408       .  A
C446        N447   1.430       .  S
N447        O451   1.262       .  A
N447        O452   1.262       .  A
C455        C456   1.405       .  A
C455        C460   1.404       .  A
C455        H462   1.084       .  S
C456        C457   1.409       .  A
C457        C458   1.395       .  A
C457        N464   1.431       .  S
C458        C459   1.399       .  A
C458        H463   1.085       .  S
C459        C460   1.409       .  A
C460        N461   1.428       .  S
N461        O465   1.262       .  A
N461        O466   1.262       .  A
N464        O468   1.262       .  A
N464        O467   1.262       .  A
C469        C470   1.413       .  A
C469        C474   1.397       .  A
C469        H476   1.083       .  S
C470        C471   1.419       .  A
C471        C472   1.401       .  A
C471        N478   1.422       .  S
C472        C473   1.394       .  A
C473        C474   1.401       .  A
C474        N475   1.429       .  S
N475        O479   1.262       .  A
N478        O481   1.262       .  A
C483        C484   1.408       .  A
C483        C488   1.397       .  A
C483        H490   1.084       .  S
C484        C485   1.417       .  A
C485        C486   1.405       .  A
C485        N492   1.422       .  S
C486        C487   1.399       .  A
C486        H491   1.084       .  S
C487        C488   1.411       .  A
C488        N489   1.430       .  S
N489        O493   1.262       .  A
N489        O494   1.261       .  A
N492        O496   1.261       .  A
N492        O495   1.262       .  A
C497        C498   1.400       .  A
C497        C502   1.400       .  A
C497        H504   1.084       .  S
C498        C499   1.410       .  A
C499        C500   1.406       .  A
C499        N506   1.429       .  S
C500        C501   1.409       .  A
C500        H505   1.084       .  S
C501        C502   1.419       .  A
C502        N503   1.430       .  S
N503        O507   1.262       .  A
N503        O508   1.262       .  A
N506        O510   1.262       .  A
N506        O509   1.262       .  A
C511        N767   1.363   1_554  A
C511        N516   1.370       .  A
C511        C725   1.498       .  S
N512        C766   1.363       .  A
N512        C513   1.352       .  A
C513        N514   1.351       .  A
C513        C753   1.481       .  S
N514        C770   1.359       .  A
C515        N769   1.359   1_554  A
C515        N516   1.368       .  A
C515        C739   1.498       .  S
C517        N773   1.361       .  A
C517        N522   1.364   1_556  A
C517        C686   1.491       .  S
N518        C772   1.362       .  A
N518        C519   1.356       .  A
C519        N520   1.354       .  A
C519        C711   1.473       .  S
N520        C776   1.356       .  A
C521        N775   1.356       .  A
C521        N522   1.360       .  A
C521        C697   1.489       .  S
C523        N779   1.357       .  A
C523        N528   1.364   1_556  A
C523        C641   1.498       .  S
N524        C778   1.357       .  A
N524        C525   1.356       .  A
C525        N526   1.363       .  A
C525        C672   1.483       .  S
N526        C782   1.364       .  A
C527        N781   1.364   1_554  A
C527        N528   1.363       .  A
C527        C655   1.495       .  S
N529        C534   1.350       .  A
N529        C533   1.350       .  A
N529        H561   1.042   1_564  S
N530        C537   1.350   1_545  A
N530        C538   1.350       .  A
N531        C536   1.351   1_556  A
N531        C535   1.351   1_556  A
N531        H562   1.042       .  S
C533        C541   1.386       .  A
C533        C549   1.411       .  A
C534        C542   1.388       .  A
C535        C543   1.387       .  A
C535        C552   1.413       .  A
C536        C551   1.415   1_554  A
C536        C544   1.388       .  A
C537        C549   1.411       .  A
C537        C545   1.387   1_554  A
C538        C552   1.411       .  A
C538        C546   1.386   1_554  A
C539        C547   1.386       .  A
C539        C550   1.410   1_546  A
C540        C548   1.386       .  A
C541        C542   1.375       .  A
C541        H553   1.082       .  S
C543        C544   1.374       .  A
C543        H555   1.082       .  S
C544        H556   1.082       .  S
C545        C546   1.373   1_565  A
C545        H557   1.082       .  S
C546        H558   1.082       .  S
C547        C548   1.373       .  A
C547        H559   1.082       .  S
C548        H560   1.082       .  S
C549        C728   1.478       .  S
C550        C683   1.479   1_554  S
C551        C630   1.479   1_655  S
C552        C644   1.481       .  S
C563        N819   1.368       .  A
C563        N568   1.366   1_556  A
C563        C627   1.489       .  S
N564        C818   1.368       .  A
N564        C565   1.362       .  A
C565        N566   1.345       .  A
C565        C613   1.475       .  S
N566        C822   1.345       .  A
C567        N821   1.345       .  A
C567        N568   1.357       .  A
C567        C599   1.481       .  S
O569        C577   1.278       .  A
O569       Co589   2.020       .  S
O570        C578   1.261       .  A
O570       Co590   2.001       .  S
O571        C579   1.264       .  A
O571       Co591   1.900       .  S
O572        C580   1.255       .  A
O572       Co592   1.943       .  S
O573        C579   1.295       .  A
O573       Co590   2.107       .  S
O574        C580   1.273       .  A
O574       Co589   2.025       .  S
O575        C578   1.246       .  A
O575       Co592   1.954       .  S
O576        C577   1.268       .  A
O576       Co591   1.974       .  S
C577        C714   1.469       .  S
C578        C602   1.457       .  S
C579        C700   1.467       .  S
C580        C616   1.471       .  S
O581        C594   1.260       .  A
O581       Co589   1.960       .  S
O582        C595   1.261       .  A
O582       Co590   1.875       .  S
O583        C596   1.265       .  A
O583       Co591   2.018       .  S
O584        C597   1.281       .  A
O584       Co592   2.049       .  S
O585        C597   1.266       .  A
O585       Co590   1.970       .  S
O586        C596   1.256       .  A
O586       Co589   1.970       .  S
O587        C594   1.272       .  A
O587       Co592   2.034       .  S
O588        C595   1.302       .  A
O588       Co591   2.126       .  S
Co589       O593   2.017       .  S
Co590       O593   1.990       .  S
Co591       O593   2.019       .  S
Co592       O593   2.040       .  S
C594        C669   1.491       .  S
C595        C742   1.481       .  S
C596        C756   1.493       .  S
C597        C658   1.493       .  S
C598        C599   1.413       .  A
C598        C603   1.393       .  A
C598        H605   1.084       .  S
C599        C600   1.413       .  A
C600        C601   1.398       .  A
C600        N607   1.428       .  S
C601        C602   1.400       .  A
C601        H606   1.084       .  S
C602        C603   1.397       .  A
C603        N604   1.428       .  S
N604        O608   1.262       .  A
N604        O609   1.260       .  A
N607        O611   1.262       .  A
N607        O610   1.262       .  A
C612        C613   1.411       .  A
C612        C617   1.393       .  A
C612        H619   1.084       .  S
C613        C614   1.404       .  A
C614        C615   1.398       .  A
C614        N621   1.427       .  S
C615        C616   1.409       .  A
C615        H620   1.084       .  S
C616        C617   1.404       .  A
C617        N618   1.430       .  S
N618        O622   1.262       .  A
N618        O623   1.262       .  A
N621        O625   1.261       .  A
N621        O624   1.262       .  A
C626        C627   1.410   1_554  A
C626        H633   1.081       .  S
C627        C883   1.416       .  A
C628        C882   1.416       .  A
C628        C629   1.400       .  A
C628        N635   1.427       .  S
C629        H634   1.084       .  S
C630        C631   1.403   1_556  A
C631        N632   1.429       .  S
N632        O636   1.262       .  A
N632        O637   1.262       .  A
N635        O639   1.262       .  A
N635        O638   1.262       .  A
C640        C641   1.412   1_554  A
C640        C645   1.402       .  A
C640        H647   1.083       .  S
C641        C897   1.425       .  A
C642        C896   1.425       .  A
C642        C643   1.399       .  A
C642        N649   1.429       .  S
C643        C899   1.393       .  A
C643        H648   1.084       .  S
C644        C898   1.394   1_554  A
C644        C645   1.403       .  A
C645        N646   1.429       .  S
N646        O650   1.262       .  A
N646        O651   1.262       .  A
N649        O653   1.262       .  A
N649        O652   1.262       .  A
C654        C655   1.407       .  A
C654        C659   1.409       .  A
C654        H661   1.084       .  S
C655        C656   1.414       .  A
C656        C657   1.406       .  A
C656        N663   1.429       .  S
C657        C658   1.405       .  A
C657        H662   1.084       .  S
C658        C659   1.414       .  A
C659        N660   1.429       .  S
N660        O664   1.262       .  A
N660        O665   1.262       .  A
N663        O667   1.262       .  A
N663        O666   1.262       .  A
C668        C669   1.403       .  A
C668        C673   1.400       .  A
C668        H675   1.084       .  S
C669        C670   1.417       .  A
C670        C671   1.407       .  A
C670        N677   1.429       .  S
C671        C672   1.403       .  A
C671        H676   1.084       .  S
C672        C673   1.414       .  A
C673        N674   1.432       .  S
N674        O678   1.262       .  A
N674        O679   1.262       .  A
N677        O681   1.261       .  A
N677        O680   1.262       .  A
C682        C683   1.397       .  A
C682        C687   1.399       .  A
C682        H689   1.084       .  S
C683        C684   1.403   1_556  A
C684        C940   1.399       .  A
C684        N691   1.429       .  S
C685        C939   1.399       .  A
C685        C941   1.410       .  A
C685        H690   1.083       .  S
C686        C940   1.410   1_556  A
C686        C687   1.420       .  A
C687        N688   1.429       .  S
N688        O692   1.262       .  A
N688        O948   1.262       .  A
N691        O950   1.262   1_565  A
N691        O694   1.262       .  A
O693        N943   1.262       .  A
O695        N946   1.262   1_545  A
C696        C697   1.412       .  A
C696        C701   1.409       .  A
C696        H703   1.083       .  S
C697        C698   1.415       .  A
C698        C699   1.390       .  A
C698        N705   1.427       .  S
C699        C700   1.393       .  A
C699        H704   1.083       .  S
C700        C701   1.408       .  A
C701        N702   1.430       .  S
N702        O706   1.262       .  A
N702        O707   1.262       .  A
N705        O964   1.262       .  A
N705        O963   1.262       .  A
O708        N960   1.262       .  A
O709        N960   1.262       .  A
C710        C711   1.405       .  A
C710        C715   1.404       .  A
C710        H717   1.084       .  S
C711        C712   1.410       .  A
C712        C713   1.395       .  A
C712        N719   1.431       .  S
C713        C714   1.399       .  A
C713        H718   1.085       .  S
C714        C715   1.409       .  A
C715        N716   1.428       .  S
N716        O720   1.262       .  A
N716        O721   1.262       .  A
N719        O723   1.262       .  A
N719        O722   1.262       .  A
C724        C725   1.413   1_556  A
C724        C729   1.397       .  A
C724        H731   1.083       .  S
C725        C726   1.419       .  A
C726        C727   1.401       .  A
C726        N733   1.422       .  S
C727        C728   1.394       .  A
C727        H987   1.084       .  S
C728        C729   1.401   1_554  A
C729        N730   1.429       .  S
N730        O734   1.262       .  A
N730        O990   1.262       .  A
H732        C982   1.084       .  S
N733        O992   1.262       .  A
N733        O736   1.262       .  A
O735        N985   1.262       .  A
O737        N988   1.262       .  A
C738        C739   1.408       .  A
C738        C743   1.397       .  A
C738        H745   1.084       .  S
C739        C740   1.417       .  A
C740        C741   1.405       .  A
C740        N747   1.422       .  S
C741        C742   1.399       .  A
C741        H746   1.084       .  S
C742        C743   1.411       .  A
C743        N744   1.430       .  S
N744        O748   1.262       .  A
N744        O749   1.261       .  A
N747        O751   1.261       .  A
N747        O750   1.262       .  A
C752        C753   1.400       .  A
C752        C757   1.400       .  A
C752        H759   1.084       .  S
C753        C754   1.410       .  A
C754        C755   1.406       .  A
C754        N761   1.429       .  S
C755        C756   1.409       .  A
C755        H760   1.084       .  S
C756        C757   1.419       .  A
C757        N758   1.430       .  S
N758        O762   1.262       .  A
N758        O763   1.262       .  A
N761        O765   1.262       .  A
N761        O764   1.262       .  A
C766        N771   1.370       .  A
C766        C980   1.498       .  S
N767        C768   1.353       .  A
C768        N769   1.351       .  A
C768       C1008   1.481       .  S
C770        N771   1.368       .  A
C770        C994   1.498       .  S
C772        N777   1.364       .  A
C772        C941   1.491       .  S
N773        C774   1.356       .  A
C774        N775   1.354   1_556  A
C774        C966   1.473       .  S
C776        N777   1.360       .  A
C776        C952   1.489       .  S
C778        N783   1.364       .  A
C778        C896   1.498       .  S
N779        C780   1.356       .  A
C780        N781   1.363       .  A
C780        C927   1.483       .  S
C782        N783   1.363       .  A
C782        C910   1.495       .  S
N784        C789   1.352       .  A
N784        C788   1.351       .  A
N784        H816   1.023   1_565  S
N785        C792   1.350   1_545  A
N785        C793   1.350       .  A
N786        C791   1.352       .  A
N786        C790   1.353       .  A
N786        H817   1.022       .  S
C788        C796   1.386       .  A
C788        C804   1.411       .  A
C789        C797   1.388       .  A
C790        C798   1.387       .  A
C790        C807   1.413       .  A
C791        C806   1.415       .  A
C791        C799   1.388       .  A
C792        C804   1.411       .  A
C792        C800   1.387       .  A
C793        C807   1.411       .  A
C793        C801   1.386       .  A
C794        C802   1.386       .  A
C794        C805   1.410   1_545  A
C795        C803   1.386       .  A
C796        C797   1.375       .  A
C796        H808   1.082       .  S
C798        C799   1.374       .  A
C798        H810   1.082       .  S
C799        H811   1.082       .  S
C800        C801   1.373   1_565  A
C800        H812   1.082       .  S
C801        H813   1.082       .  S
C802        C803   1.373       .  A
C802        H814   1.082       .  S
C803        H815   1.082       .  S
C804        C983   1.478       .  S
C805        C938   1.480       .  S
C806        C885   1.479   1_655  S
C807        C899   1.481       .  S
C818        N823   1.366       .  A
C818        C882   1.489       .  S
N819        C820   1.362       .  A
C820        N821   1.345   1_556  A
C820        C868   1.475       .  S
C822        N823   1.357       .  A
C822        C854   1.481       .  S
O824        C832   1.278       .  A
O824       Co844   2.020       .  S
O825        C833   1.261       .  A
O825       Co845   2.001       .  S
O826        C834   1.264       .  A
O826       Co846   1.900       .  S
O827        C835   1.255       .  A
O827       Co847   1.943       .  S
O828        C834   1.295       .  A
O828       Co845   2.107       .  S
O829        C835   1.273       .  A
O829       Co844   2.025       .  S
O830        C833   1.246       .  A
O830       Co847   1.954       .  S
O831        C832   1.268       .  A
O831       Co846   1.974       .  S
C832        C969   1.469       .  S
C833        C857   1.457       .  S
C834        C955   1.467       .  S
C835        C871   1.471       .  S
O836        C849   1.260       .  A
O836       Co844   1.960       .  S
O837        C850   1.261       .  A
O837       Co845   1.875       .  S
O838        C851   1.265       .  A
O838       Co846   2.018       .  S
O839        C852   1.281       .  A
O839       Co847   2.049       .  S
O840        C852   1.266       .  A
O840       Co845   1.970       .  S
O841        C851   1.256       .  A
O841       Co844   1.970       .  S
O842        C849   1.272       .  A
O842       Co847   2.035       .  S
O843        C850   1.302       .  A
O843       Co846   2.126       .  S
Co844       O848   2.017       .  S
Co845       O848   1.990       .  S
Co846       O848   2.019       .  S
Co847       O848   2.040       .  S
C849        C924   1.491       .  S
C850        C997   1.481       .  S
C851       C1011   1.493       .  S
C852        C913   1.493       .  S
C853        C854   1.413       .  A
C853        C858   1.393       .  A
C853        H860   1.084       .  S
C854        C855   1.413       .  A
C855        C856   1.398       .  A
C855        N862   1.428       .  S
C856        C857   1.400       .  A
C856        H861   1.084       .  S
C857        C858   1.397       .  A
C858        N859   1.428       .  S
N859        O863   1.262       .  A
N859        O864   1.260       .  A
N862        O866   1.262       .  A
N862        O865   1.262       .  A
C867        C868   1.411       .  A
C867        C872   1.393       .  A
C867        H874   1.084       .  S
C868        C869   1.404       .  A
C869        C870   1.398       .  A
C869        N876   1.427       .  S
C870        C871   1.409       .  A
C870        H875   1.084       .  S
C871        C872   1.404       .  A
C872        N873   1.430       .  S
N873        O877   1.262       .  A
N873        O878   1.262       .  A
N876        O880   1.261       .  A
N876        O879   1.262       .  A
C881        C882   1.410       .  A
C881        H888   1.081       .  S
C883        C884   1.400       .  A
C883        N890   1.426       .  S
C884        H889   1.084       .  S
C885        C886   1.403       .  A
C886        N887   1.429       .  S
N887        O891   1.262       .  A
N887        O892   1.262       .  A
N890        O894   1.262       .  A
N890        O893   1.262       .  A
C895        C896   1.412       .  A
C895        C900   1.402       .  A
C895        H902   1.083       .  S
C897        C898   1.399       .  A
C897        N904   1.429       .  S
C898        H903   1.084       .  S
C899        C900   1.403       .  A
C900        N901   1.429       .  S
N901        O905   1.262       .  A
N901        O906   1.262       .  A
N904        O908   1.262       .  A
N904        O907   1.262       .  A
C909        C910   1.407       .  A
C909        C914   1.409       .  A
C909        H916   1.084       .  S
C910        C911   1.414       .  A
C911        C912   1.406       .  A
C911        N918   1.429       .  S
C912        C913   1.405       .  A
C912        H917   1.084       .  S
C913        C914   1.414       .  A
C914        N915   1.429       .  S
N915        O919   1.262       .  A
N915        O920   1.262       .  A
N918        O922   1.262       .  A
N918        O921   1.262       .  A
C923        C924   1.403       .  A
C923        C928   1.400       .  A
C923        H930   1.084       .  S
C924        C925   1.417       .  A
C925        C926   1.407       .  A
C925        N932   1.429       .  S
C926        C927   1.402       .  A
C926        H931   1.084       .  S
C927        C928   1.414       .  A
C928        N929   1.432       .  S
N929        O933   1.262       .  A
N929        O934   1.262       .  A
N932        O936   1.261       .  A
N932        O935   1.262       .  A
C937        C938   1.397       .  A
C937        C942   1.399       .  A
C937        H944   1.084       .  S
C938        C939   1.403       .  A
C939        N946   1.429       .  S
C940        H945   1.083       .  S
C941        C942   1.420       .  A
C942        N943   1.429       .  S
N943        O947   1.262       .  A
N946        O949   1.262       .  A
C951        C952   1.412       .  A
C951        C956   1.409       .  A
C951        H958   1.083       .  S
C952        C953   1.415       .  A
C953        C954   1.390       .  A
C953        N960   1.427       .  S
C954        C955   1.393       .  A
C954        H959   1.083       .  S
C955        C956   1.408       .  A
C956        N957   1.430       .  S
N957        O961   1.262       .  A
N957        O962   1.262       .  A
C965        C966   1.405       .  A
C965        C970   1.404       .  A
C965        H972   1.084       .  S
C966        C967   1.409       .  A
C967        C968   1.395       .  A
C967        N974   1.431       .  S
C968        C969   1.399       .  A
C968        H973   1.085       .  S
C969        C970   1.409       .  A
C970        N971   1.428       .  S
N971        O975   1.262       .  A
N971        O976   1.262       .  A
N974        O978   1.262       .  A
N974        O977   1.262       .  A
C979        C980   1.413       .  A
C979        C984   1.397       .  A
C979        H986   1.083       .  S
C980        C981   1.419       .  A
C981        C982   1.401       .  A
C981        N988   1.422       .  S
C982        C983   1.394       .  A
C983        C984   1.401       .  A
C984        N985   1.429       .  S
N985        O989   1.262       .  A
N988        O991   1.262       .  A
C993        C994   1.408       .  A
C993        C998   1.397       .  A
C993       H1000   1.084       .  S
C994        C995   1.417       .  A
C995        C996   1.405       .  A
C995       N1002   1.422       .  S
C996        C997   1.399       .  A
C996       H1001   1.084       .  S
C997        C998   1.411       .  A
C998        N999   1.430       .  S
N999       O1003   1.262       .  A
N999       O1004   1.261       .  A
N1002      O1006   1.261       .  A
N1002      O1005   1.262       .  A
C1007      C1008   1.400       .  A
C1007      C1012   1.400       .  A
C1007      H1014   1.084       .  S
C1008      C1009   1.410       .  A
C1009      C1010   1.406       .  A
C1009      N1016   1.429       .  S
C1010      C1011   1.409       .  A
C1010      H1015   1.084       .  S
C1011      C1012   1.419       .  A
C1012      N1013   1.430       .  S
N1013      O1017   1.262       .  A
N1013      O1018   1.262       .  A
N1016      O1020   1.262       .  A
N1016      O1019   1.262       .  A
