geometry optimzed in LAMMPS
_audit_creation_date              2020-11-30 
_audit_creation_method            'lammps2cif' 
_symmetry_space_group_name_H-M    'P1' 
_symmetry_Int_Tables_number       1 
_symmetry_cell_setting            triclinic 
loop_ 
_symmetry_equiv_pos_as_xyz 
  x,y,z 
_cell_length_a                    44.37088667790542 
_cell_length_b                    44.39296688985439 
_cell_length_c                    44.41813663697223 
_cell_angle_alpha                 89.62469584484133 
_cell_angle_beta                  89.73138155688403 
_cell_angle_gamma                 90.01135574420292 
loop_ 
_atom_site_label 
_atom_site_type_symbol 
_atom_site_fract_x 
_atom_site_fract_y 
_atom_site_fract_z 
_atom_site_charge 
C1          C  0.16852960  0.46380719  0.99981067     0.03210
C2          C  0.16347929  0.44594707  0.02502263    -0.12940
C3          C  0.13885047  0.42625986  0.02605474     0.00710
C4          C  0.12517599  0.41792425  0.49852295    -0.11470
C5          C  0.13491962  0.43181252  0.47119453     0.03200
C6          C  0.15544450  0.45586396  0.47260568    -0.10890
H7          H  0.17520029  0.45203891  0.04547402     0.08800
H8          H  0.10769893  0.40090552  0.49832433     0.06320
H9          H  0.15998681  0.46956176  0.45280911     0.06170
C10         C  0.29700109  0.08329343  0.00012524     0.03210
C11         C  0.31035999  0.09110032  0.02745273    -0.12940
C12         C  0.33065001  0.11535445  0.02904151     0.00710
C13         C  0.34045110  0.12932348  0.00184133    -0.11470
C14         C  0.32677307  0.12122460  0.47430325     0.03200
C15         C  0.30215514  0.10151022  0.47517843    -0.10890
H16         H  0.30596028  0.07759153  0.04738701     0.08800
H17         H  0.35790190  0.14635710  0.00216405     0.06320
H18         H  0.28930883  0.09722640  0.45497482     0.06170
C19         C  0.48266959  0.33801763  0.06200709     0.03210
C20         C  0.00966321  0.35279988  0.06831819    -0.12940
C21         C  0.01166001  0.37344348  0.09213052     0.00710
C22         C  0.48451595  0.38307509  0.10640190    -0.11470
C23         C  0.45693989  0.36857404  0.09918897     0.03200
C24         C  0.45811564  0.34307958  0.08074070    -0.10890
H25         H  0.02926750  0.34854238  0.05438533     0.08800
H26         H  0.48493956  0.40079175  0.12302190     0.06320
H27         H  0.43837443  0.32906252  0.07791795     0.06170
C28         C  0.48554604  0.21022875  0.44043944     0.03210
C29         C  0.45833280  0.19558941  0.43439768    -0.12940
C30         C  0.45617389  0.17444111  0.41107409     0.00710
C31         C  0.48310115  0.16473072  0.39659293    -0.11470
C32         C  0.01073649  0.17928506  0.40316531     0.03200
C33         C  0.01004084  0.20472407  0.42166894    -0.10890
H34         H  0.43874028  0.20018769  0.44823360     0.08800
H35         H  0.48245678  0.14684604  0.38015578     0.06320
H36         H  0.03000458  0.21846597  0.42424114     0.06170
C37         C  0.29910604  0.45873305  0.99918913     0.03210
C38         C  0.31359619  0.45098459  0.02591733    -0.12940
C39         C  0.33396758  0.42672443  0.02736064     0.00710
C40         C  0.34328377  0.41301218  0.99984320    -0.11470
C41         C  0.32915675  0.42159688  0.47232231     0.03200
C42         C  0.30445803  0.44124153  0.47378524    -0.10890
H43         H  0.30964185  0.46449651  0.04574361     0.08800
H44         H  0.36055014  0.39579071  0.99991997     0.06320
H45         H  0.29151940  0.44628958  0.45376892     0.06170
C46         C  0.16913970  0.08941297  0.50129616     0.03210
C47         C  0.16315218  0.10649089  0.02657670    -0.12940
C48         C  0.13725240  0.12452947  0.02806870     0.00710
C49         C  0.12272530  0.13258914  0.00059167    -0.11470
C50         C  0.13282742  0.11943153  0.47308142     0.03200
C51         C  0.15481821  0.09661629  0.47450075    -0.10890
H52         H  0.17560066  0.10078447  0.04676766     0.08800
H53         H  0.10423179  0.14848425  0.00061131     0.06320
H54         H  0.15975809  0.08301579  0.45491068     0.06170
C55         C  0.48189439  0.33768918  0.43937176     0.03210
C56         C  0.00867742  0.35278988  0.43239613    -0.12940
C57         C  0.01015815  0.37411693  0.40886275     0.00710
C58         C  0.48283106  0.38366731  0.39514491    -0.11470
C59         C  0.45536696  0.36907186  0.40298901     0.03200
C60         C  0.45658527  0.34374873  0.42197527    -0.10890
H61         H  0.02852737  0.34852876  0.44581032     0.08800
H62         H  0.48302754  0.40146554  0.37836745     0.06320
H63         H  0.43653278  0.33040357  0.42602298     0.06170
C64         C  0.48605741  0.20979727  0.06226237     0.03210
C65         C  0.01107903  0.20340171  0.07995543    -0.12940
C66         C  0.01216100  0.17749107  0.09815347     0.00710
C67         C  0.48469433  0.16232980  0.10488254    -0.11470
C68         C  0.45756897  0.17195989  0.09079409     0.03200
C69         C  0.45933073  0.19412793  0.06808454    -0.10890
H70         H  0.03109658  0.21700378  0.07667832     0.08800
H71         H  0.48434015  0.14397669  0.12104808     0.06320
H72         H  0.43972940  0.19865684  0.05438779     0.06170
C73         C  0.41825314  0.02232824  0.18711995     0.03210
C74         C  0.41028720  0.49519138  0.17396873    -0.12940
C75         C  0.38751681  0.49384302  0.15208511     0.00710
C76         C  0.37505403  0.02137084  0.14108709    -0.11470
C77         C  0.38354584  0.04899566  0.15474163     0.03200
C78         C  0.40134135  0.04779873  0.18071735    -0.10890
H79         H  0.42346721  0.47532756  0.17932689     0.08800
H80         H  0.35933756  0.02129040  0.12252581     0.06320
H81         H  0.40743797  0.06829158  0.19237027     0.06170
C82         C  0.04201716  0.02313331  0.31526165     0.03210
C83         C  0.04918872  0.05014669  0.32960800    -0.12940
C84         C  0.07303632  0.05168371  0.35031152     0.00710
C85         C  0.08666633  0.02437701  0.36014795    -0.11470
C86         C  0.07882782  0.49695610  0.34594436     0.03200
C87         C  0.06019870  0.49822418  0.32061086    -0.10890
H88         H  0.03586513  0.07008525  0.32512874     0.08800
H89         H  0.10339081  0.02455551  0.37780544     0.06320
H90         H  0.05702628  0.47841449  0.30690169     0.06170
C91         C  0.41929155  0.02363633  0.31643826     0.03210
C92         C  0.41303710  0.05006739  0.33207249    -0.12940
C93         C  0.38977011  0.05141142  0.35371532     0.00710
C94         C  0.37636026  0.02381386  0.36364407    -0.11470
C95         C  0.38408120  0.49649468  0.34878026     0.03200
C96         C  0.40168078  0.49843839  0.32251810    -0.10890
H97         H  0.42674286  0.06979933  0.32777609     0.08800
H98         H  0.36021156  0.02366784  0.38198575     0.06320
H99         H  0.40494799  0.47880837  0.30853572     0.06170
C100        C  0.04456081  0.02210413  0.18250461     0.03210
C101        C  0.06139063  0.04786889  0.17735615    -0.12940
C102        C  0.08148815  0.04948461  0.15301716     0.00710
C103        C  0.09124400  0.02202265  0.13969770    -0.11470
C104        C  0.07818954  0.49423647  0.14953288     0.03200
C105        C  0.05363185  0.49516633  0.16964684    -0.10890
H106        H  0.05418989  0.06811233  0.18887792     0.08800
H107        H  0.10864639  0.02222660  0.12253069     0.06320
H108        H  0.04041196  0.47509504  0.17419369     0.06170
C109        C  0.23382482  0.21082524  0.06540114     0.03210
C110        C  0.26087930  0.20416215  0.08000256    -0.12940
C111        C  0.26263934  0.18093487  0.10157151     0.00710
C112        C  0.23533241  0.16782998  0.11242670    -0.11470
C113        C  0.20772492  0.17543299  0.09817789     0.03200
C114        C  0.20896205  0.19285437  0.07176927    -0.10890
H115        H  0.28082030  0.21731566  0.07494477     0.08800
H116        H  0.23564220  0.15173514  0.13083617     0.06320
H117        H  0.18921301  0.19512292  0.05775353     0.06170
O118        O  0.39593207  0.19130593  0.15016488    -0.85270
O119        O  0.36380179  0.15101211  0.18709754    -0.82310
C120        C  0.34442033  0.13098020  0.19281636     0.98190
O121        O  0.33151968  0.11749606  0.17128969    -0.82350
O122        O  0.29815533  0.15184836  0.13065928    -0.84990
C123        C  0.29344939  0.17004483  0.10932578     1.02720
O124        O  0.31500107  0.17772931  0.09205663    -0.77760
O125        O  0.35914521  0.20977773  0.12286850    -0.77940
C126        C  0.38101962  0.21377468  0.14043179     1.02670
O127        O  0.42216941  0.14169353  0.11938021    -0.85270
O128        O  0.38922449  0.10192120  0.15594925    -0.82330
C129        C  0.37622613  0.07986845  0.14336625     0.98210
O130        O  0.35683037  0.08464472  0.12328019    -0.82360
O131        O  0.32361693  0.11819440  0.08188054    -0.84960
C132        C  0.33957184  0.12605315  0.05934888     1.02680
O133        O  0.36111377  0.14423577  0.06258620    -0.77780
O134        O  0.40470900  0.17831669  0.09139857    -0.77930
C135        C  0.42668387  0.16254267  0.10049598     1.02650
Cr136      Cr  0.39012677  0.14659742  0.15066391     1.93740
Cr137      Cr  0.33012099  0.12056992  0.12653420     1.93210
Cr138      Cr  0.35992320  0.17501525  0.09477609     1.39100
O139        O  0.36002840  0.14741046  0.12414334    -1.23020
C140        C  0.23134206  0.21078483  0.43374703     0.03210
C141        C  0.25839653  0.20464833  0.41886494    -0.12940
C142        C  0.26083293  0.18077972  0.39839438     0.00710
C143        C  0.23384441  0.16636449  0.38867774    -0.11470
C144        C  0.20602132  0.17363957  0.40299869     0.03200
C145        C  0.20689552  0.19209789  0.42850216    -0.10890
H146        H  0.27784683  0.21870306  0.42300872     0.08800
H147        H  0.23455778  0.14967140  0.37103646     0.06320
H148        H  0.18708021  0.19471830  0.44253979     0.06170
C149        C  0.30122038  0.08917023  0.25149500     0.03210
C150        C  0.31765603  0.09536448  0.22568067    -0.12940
C151        C  0.33671517  0.12055566  0.22413769     0.00710
C152        C  0.34600657  0.13394309  0.25175739    -0.11470
C153        C  0.33330209  0.12331937  0.27954605     0.03200
C154        C  0.30982414  0.10205257  0.27840866    -0.10890
H155        H  0.31054193  0.08394597  0.20541504     0.08800
H156        H  0.36244662  0.15195941  0.25164374     0.06320
H157        H  0.29650419  0.09688684  0.29831496     0.06170
O158        O  0.35862756  0.14967222  0.44043377    -0.85270
O159        O  0.40332160  0.18174544  0.40986369    -0.82310
C160        C  0.42538265  0.16578718  0.40107765     0.98190
O161        O  0.42130181  0.14508546  0.38222104    -0.82350
O162        O  0.39000073  0.10424107  0.34707795    -0.84990
C163        C  0.37965851  0.08236436  0.36245552     1.02720
O164        O  0.35978136  0.08716729  0.38230361    -0.77760
O165        O  0.32340986  0.12127185  0.42122248    -0.77940
C166        C  0.33718612  0.13138278  0.44396145     1.02670
O167        O  0.31337091  0.18061834  0.40722560    -0.85270
O168        O  0.35805609  0.21233108  0.37629769    -0.82330
C169        C  0.38014522  0.21606597  0.35876388     0.98210
O170        O  0.39523004  0.19350968  0.34997982    -0.82360
O171        O  0.36208488  0.15265929  0.31541660    -0.84960
C172        C  0.34301340  0.13218503  0.31047319     1.02680
O173        O  0.33254528  0.11678013  0.33229888    -0.77780
O174        O  0.29749583  0.15115189  0.37118500    -0.77930
C175        C  0.29211514  0.17070824  0.39096620     1.02650
Cr176      Cr  0.35842636  0.17849723  0.40595126     1.93740
Cr177      Cr  0.38946573  0.14898773  0.35105041     1.93210
Cr178      Cr  0.33092368  0.12158279  0.37689118     1.39100
O179        O  0.35956485  0.14975524  0.37797358    -1.23020
C180        C  0.42222060  0.27059528  0.18601674     0.03210
C181        C  0.41640052  0.24548606  0.16845072    -0.12940
C182        C  0.39092910  0.24437238  0.14994679     0.00710
C183        C  0.37611315  0.27179763  0.14258744    -0.11470
C184        C  0.38554770  0.29899302  0.15642513     0.03200
C185        C  0.40720297  0.29740343  0.17940755    -0.10890
H186        H  0.42940381  0.22529127  0.17285678     0.08800
H187        H  0.35797834  0.27201398  0.12637704     0.06320
H188        H  0.41153224  0.31702179  0.19308029     0.06170
C189        C  0.23413802  0.33309612  0.06411266     0.03210
C190        C  0.20862977  0.35030488  0.07016738    -0.12940
C191        C  0.20709361  0.36875955  0.09560326     0.00710
C192        C  0.23444360  0.37721359  0.10965119    -0.11470
C193        C  0.26196184  0.36412958  0.09974604     0.03200
C194        C  0.26081070  0.34037654  0.07901154    -0.10890
H195        H  0.18871752  0.34670795  0.05669052     0.08800
H196        H  0.23438630  0.39389925  0.12731238     0.06320
H197        H  0.28090339  0.32718396  0.07510278     0.06170
O198        O  0.35575668  0.33393998  0.12719585    -0.85270
O199        O  0.31468358  0.36616959  0.09258146    -0.82310
C200        C  0.29244633  0.37530237  0.10805738     0.98190
O201        O  0.29626532  0.39487602  0.12812401    -0.82350
O202        O  0.32729043  0.42973309  0.16935719    -0.84990
C203        C  0.33598134  0.41418791  0.19166654     1.02720
O204        O  0.35497235  0.39341217  0.18795581    -0.77760
O205        O  0.39026604  0.35186908  0.15723193    -0.77940
C206        C  0.37577928  0.32970434  0.14683779     1.02670
O207        O  0.40400159  0.36394821  0.09785020    -0.85270
O208        O  0.36294718  0.39713273  0.06321404    -0.82330
C209        C  0.34232461  0.41611706  0.05831855     0.98210
O210        O  0.32633435  0.42551054  0.08005474    -0.82360
O211        O  0.35915524  0.45872232  0.12195168    -0.85040
C212        C  0.37760192  0.46313735  0.14303006     1.02680
O213        O  0.38678167  0.44117118  0.15892296    -0.77780
O214        O  0.42139971  0.39902619  0.12752260    -0.77930
C215        C  0.42609103  0.37823999  0.10883453     1.02650
Cr216      Cr  0.35931071  0.36792739  0.09769815     1.93740
Cr217      Cr  0.32983973  0.42465394  0.12487978     1.93210
Cr218      Cr  0.38582017  0.39644857  0.15526104     1.39100
O219        O  0.35848289  0.39641807  0.12583470    -1.23020
C220        C  0.29431050  0.45920332  0.25000109     0.03210
C221        C  0.30171508  0.44454557  0.22322432    -0.12940
C222        C  0.32520035  0.42330098  0.22204218     0.00710
C223        C  0.33849670  0.41352037  0.24942131    -0.11470
C224        C  0.33034215  0.42781068  0.27672041     0.03200
C225        C  0.31163264  0.45319647  0.27539112    -0.10890
H226        H  0.28851033  0.44882748  0.20323779     0.08800
H227        H  0.35503608  0.39559876  0.24942610     0.06320
H228        H  0.30736408  0.46621522  0.29550019     0.06170
C229        C  0.41974934  0.27181934  0.30967930     0.03210
C230        C  0.41472944  0.24713352  0.32837034    -0.12940
C231        C  0.38989363  0.24639051  0.34791064     0.00710
C232        C  0.37556123  0.27396267  0.35513671    -0.11470
C233        C  0.38502595  0.30098498  0.34054819     0.03200
C234        C  0.40571474  0.29909074  0.31657362    -0.10890
H235        H  0.42780322  0.22694041  0.32429974     0.08800
H236        H  0.35802427  0.27448366  0.37215805     0.06320
H237        H  0.41015651  0.31874935  0.30268168     0.06170
C238        C  0.23156427  0.33301130  0.43259924     0.03210
C239        C  0.20641171  0.35079031  0.42695104    -0.12940
C240        C  0.20530289  0.37017323  0.40192896     0.00710
C241        C  0.23289527  0.37821475  0.38759178    -0.11470
C242        C  0.26011357  0.36402061  0.39691503     0.03200
C243        C  0.25832858  0.33982416  0.41738155    -0.10890
H244        H  0.18642081  0.34693942  0.44048875     0.08800
H245        H  0.23327274  0.39546235  0.37025432     0.06320
H246        H  0.27803838  0.32598122  0.42100870     0.06170
O247        O  0.32367970  0.42296206  0.41918961    -0.85270
O248        O  0.35666306  0.45958457  0.37901771    -0.82310
C249        C  0.37545323  0.46515163  0.35830374     0.98190
O250        O  0.38693146  0.44355225  0.34350036    -0.82350
O251        O  0.42041372  0.40048000  0.37527866    -0.84990
C252        C  0.42469918  0.37841843  0.39274646     1.02720
O253        O  0.40243470  0.36273216  0.40169688    -0.77760
O254        O  0.35980684  0.39402447  0.43632300    -0.77940
C255        C  0.33852814  0.41223159  0.44123220     1.02670
O256        O  0.29572068  0.39454110  0.36901833    -0.85270
O257        O  0.32860399  0.43123803  0.32979802    -0.82330
C258        C  0.33962995  0.41757202  0.30729949     0.98210
O259        O  0.35843047  0.39670404  0.31124363    -0.82360
O260        O  0.39193875  0.35381987  0.34226525    -0.84960
C261        C  0.37607268  0.33152671  0.35076889     1.02680
O262        O  0.35491697  0.33520582  0.36939549    -0.77780
O263        O  0.31277566  0.36490600  0.40455942    -0.77930
C264        C  0.29102720  0.37467158  0.38886551     1.02650
Cr265      Cr  0.32875350  0.42454624  0.37431559     1.93740
Cr266      Cr  0.38687466  0.39856002  0.34563892     1.93210
Cr267      Cr  0.35760691  0.36690322  0.40061041     1.39100
O268        O  0.35790896  0.39686168  0.37366326    -1.23020
C269        C  0.17088181  0.45554183  0.24955846     0.03210
C270        C  0.15237953  0.45071279  0.27433303    -0.12940
C271        C  0.13364609  0.42532954  0.27605250     0.00710
C272        C  0.12568292  0.41093893  0.24862596    -0.11470
C273        C  0.13969263  0.42053230  0.22116452     0.03200
C274        C  0.16399735  0.44085460  0.22278406    -0.10890
H275        H  0.15578211  0.46476155  0.29386479     0.08800
H276        H  0.10874246  0.39339413  0.24855623     0.06320
H277        H  0.17783910  0.44501593  0.20305006     0.06170
C278        C  0.04829159  0.27507376  0.31269444     0.03210
C279        C  0.06347762  0.24834420  0.31929250    -0.12940
C280        C  0.08450007  0.24655361  0.34285043     0.00710
C281        C  0.09382205  0.27380481  0.35689361    -0.11470
C282        C  0.07922588  0.30137391  0.34922591     0.03200
C283        C  0.05402684  0.30017564  0.33030711    -0.10890
H284        H  0.05942604  0.22873633  0.30553311     0.08800
H285        H  0.11147498  0.27348380  0.37362378     0.06320
H286        H  0.04065977  0.32018200  0.32624088     0.06170
O287        O  0.10551005  0.39540369  0.31269114    -0.85270
O288        O  0.07337274  0.35441574  0.34897170    -0.82310
C289        C  0.08852035  0.33225666  0.35903623     0.98190
O290        O  0.10995368  0.33688697  0.37701820    -0.82350
O291        O  0.15243684  0.37118488  0.40845884    -0.84990
C292        C  0.17457888  0.38054398  0.39283715     1.02720
O293        O  0.17005955  0.39836883  0.37111925    -0.77760
O294        O  0.13589130  0.43055057  0.32893434    -0.77940
C295        C  0.12442146  0.41599640  0.30727469     1.02670
O296        O  0.07724645  0.44388187  0.34239199    -0.85270
O297        O  0.04512270  0.40353353  0.37890415    -0.82330
C298        C  0.04087538  0.38307512  0.39829382     0.98210
O299        O  0.06296128  0.36754479  0.40753689    -0.82360
O300        O  0.10500748  0.40261238  0.43727547    -0.84960
C301        C  0.12589807  0.42147464  0.44081485     1.02680
O302        O  0.14138539  0.43043850  0.41841315    -0.77780
O303        O  0.10752724  0.46220943  0.37641343    -0.77930
C304        C  0.08841462  0.46630882  0.35594031     1.02650
Cr305      Cr  0.07792988  0.39926314  0.34824965     1.93740
Cr306      Cr  0.10766224  0.37202527  0.40491251     1.93210
Cr307      Cr  0.13613087  0.42777697  0.37380308     1.39100
O308        O  0.10738314  0.39958003  0.37547465    -1.23020
C309        C  0.17425688  0.08830140  0.25085750     0.03210
C310        C  0.16405162  0.10000724  0.27794295    -0.12940
C311        C  0.13947553  0.11991594  0.27872693     0.00710
C312        C  0.12666124  0.12974763  0.25107216    -0.11470
C313        C  0.13701614  0.11714947  0.22358859     0.03200
C314        C  0.15813358  0.09377153  0.22474762    -0.10890
H315        H  0.17684873  0.09536462  0.29818296     0.08800
H316        H  0.10898057  0.14654848  0.25096394     0.06320
H317        H  0.16658060  0.08370565  0.20418091     0.06170
O318        O  0.13781055  0.11756771  0.42032357    -0.85270
O319        O  0.10291496  0.08617692  0.37928823    -0.82310
C320        C  0.08413975  0.08221540  0.35846639     0.98190
O321        O  0.07603819  0.10423848  0.34210492    -0.82350
O322        O  0.04476903  0.14807209  0.37428851    -0.84990
C323        C  0.04112095  0.16929413  0.39268152     1.02720
O324        O  0.06381589  0.18342875  0.40261709    -0.77760
O325        O  0.10354907  0.14865442  0.43724641    -0.77940
C326        C  0.12327108  0.12875153  0.44215564     1.02670
O327        O  0.17048490  0.14510838  0.37283026    -0.85270
O328        O  0.13628221  0.11282652  0.33123414    -0.82330
C329        C  0.12813835  0.12871869  0.30891696     0.98210
O330        O  0.10987260  0.15016515  0.31249291    -0.82360
O331        O  0.07724793  0.19383883  0.34333099    -0.84960
C332        C  0.09305233  0.21550026  0.35297159     1.02680
O333        O  0.11330159  0.21053204  0.37223927    -0.77780
O334        O  0.15297679  0.17591997  0.40698010    -0.77930
C335        C  0.17515702  0.16423345  0.39318911     1.02650
Cr336      Cr  0.13434863  0.11812091  0.37573930     1.93740
Cr337      Cr  0.07954486  0.14897084  0.34564465     1.93210
Cr338      Cr  0.10833017  0.17700722  0.40223422     1.39100
O339        O  0.10745127  0.14808056  0.37453791    -1.23020
C340        C  0.04931014  0.27417128  0.18991675     0.03210
C341        C  0.06384305  0.24702174  0.18354698    -0.12940
C342        C  0.08474203  0.24496087  0.15976671     0.00710
C343        C  0.09443776  0.27196383  0.14519846    -0.11470
C344        C  0.07991170  0.29956113  0.15214768     0.03200
C345        C  0.05454041  0.29867913  0.17105150    -0.10890
H346        H  0.05937179  0.22742379  0.19750295     0.08800
H347        H  0.11221601  0.27140051  0.12843595     0.06320
H348        H  0.04082175  0.31859996  0.17415597     0.06170
O349        O  0.06434265  0.36561027  0.09273892    -0.85270
O350        O  0.10736877  0.39816748  0.06062354    -0.82310
C351        C  0.12860087  0.41658459  0.05660520     0.98190
O352        O  0.14272036  0.42692658  0.07903266    -0.82350
O353        O  0.10831574  0.45946896  0.12043494    -0.84990
C354        C  0.08924490  0.46368926  0.14111087     1.02720
O355        O  0.08005477  0.44159152  0.15684509    -0.77760
O356        O  0.04721301  0.40159981  0.12177223    -0.77940
C357        C  0.04258882  0.38151745  0.10234275     1.02670
O358        O  0.11119209  0.33432205  0.12356500    -0.85270
O359        O  0.15408607  0.36747756  0.09097170    -0.82330
C360        C  0.17628189  0.37805275  0.10541912     0.98210
O361        O  0.17186033  0.39651470  0.12642310    -0.82360
O362        O  0.13859396  0.42897366  0.16853881    -0.84960
C363        C  0.12908915  0.41273502  0.19024469     1.02680
O364        O  0.10973599  0.39246360  0.18546911    -0.77780
O365        O  0.07499115  0.35249053  0.15156905    -0.77930
C366        C  0.08969108  0.33011773  0.14174239     1.02650
Cr367      Cr  0.10927083  0.36889317  0.09463983     1.93740
Cr368      Cr  0.13772977  0.42550208  0.12361650     1.93210
Cr369      Cr  0.08059633  0.39700965  0.15143514     1.39100
O370        O  0.10929180  0.39706293  0.12321821    -1.23020
O371        O  0.04688511  0.14579142  0.12586489    -0.85270
O372        O  0.07966808  0.10247318  0.15819073    -0.82310
C373        C  0.09033591  0.08057167  0.14329855     0.98190
O374        O  0.10854105  0.08559927  0.12203481    -0.82350
O375        O  0.14135803  0.12067025  0.08102358    -0.84990
C376        C  0.12706762  0.13249683  0.05918652     1.02720
O377        O  0.10624299  0.15111852  0.06435449    -0.77760
O378        O  0.06517041  0.18352002  0.09963513    -0.77940
C379        C  0.04276142  0.16794302  0.10846664     1.02670
O380        O  0.07674860  0.19227880  0.15820732    -0.85270
O381        O  0.10952419  0.14881228  0.18922727    -0.82330
C382        C  0.12784877  0.12749447  0.19304289     0.98210
O383        O  0.13839438  0.11347763  0.17049190    -0.82360
O384        O  0.17219159  0.14794509  0.12956162    -0.84960
C385        C  0.17685830  0.16677748  0.10873228     1.02680
O386        O  0.15466990  0.17825687  0.09488705    -0.77780
O387        O  0.11420652  0.20984467  0.13102045    -0.77930
C388        C  0.09317126  0.21417066  0.14965329     1.02650
Cr389      Cr  0.08068526  0.14737587  0.15527536     1.93740
Cr390      Cr  0.13756997  0.11953353  0.12585842     1.93210
Cr391      Cr  0.10994681  0.17808330  0.09994443     1.39100
O392        O  0.10936113  0.14819987  0.12695217    -1.23020
C393        C  0.04154130  0.30567026  0.26682572    -0.21230
C394        C  0.03392544  0.27941139  0.28287900    -0.09270
C395        C  0.02063915  0.25541877  0.26716621     0.29590
C396        C  0.02143283  0.25536135  0.23567094    -0.21230
C397        C  0.03546218  0.27917327  0.21991537    -0.09280
C398        C  0.04293618  0.30555036  0.23583236     0.29600
F399        F  0.05684660  0.32948197  0.22258295    -0.19800
H400        H  0.05140392  0.32500252  0.27778670     0.17960
H401        H  0.01388962  0.23546920  0.22386170     0.17970
F402        F  0.00975292  0.23093045  0.28208486    -0.19790
C403        C  0.24811273  0.46477022  0.28041293    -0.21230
C404        C  0.26393643  0.47266470  0.25407961    -0.09270
C405        C  0.24771066  0.48527499  0.22990926     0.29590
C406        C  0.21620340  0.48360371  0.22987932    -0.21230
C407        C  0.20090667  0.46948448  0.25394736    -0.09280
C408        C  0.21716049  0.46252772  0.28032942     0.29600
F409        F  0.20439363  0.44845858  0.30445158    -0.19800
H410        H  0.25932731  0.45538357  0.29991356     0.17960
H411        H  0.20409401  0.49069717  0.20993047     0.17970
F412        F  0.26221247  0.49650708  0.20532248    -0.19790
C413        C  0.44783947  0.28965981  0.26366696    -0.21230
C414        C  0.43230804  0.26670684  0.27925499    -0.09270
C415        C  0.42276453  0.24108539  0.26326755     0.29590
C416        C  0.42499114  0.24054677  0.23237352    -0.21230
C417        C  0.43514874  0.26592711  0.21633641    -0.09280
C418        C  0.44927276  0.28933182  0.23218520     0.29600
F419        F  0.46174767  0.31307013  0.21729537    -0.19800
H420        H  0.45637847  0.30907821  0.27558273     0.17960
H421        H  0.41397069  0.22194152  0.22123664     0.17970
F422        F  0.40640646  0.21864320  0.27637115    -0.19790
C423        C  0.25351937  0.10276500  0.22919272    -0.21230
C424        C  0.26927652  0.08239967  0.24740111    -0.09270
C425        C  0.25350495  0.06102908  0.26482711     0.29590
C426        C  0.22191802  0.06112178  0.26468572    -0.21230
C427        C  0.20650563  0.08273204  0.24738459    -0.09280
C428        C  0.22268716  0.10336337  0.22947647     0.29600
F429        F  0.20883848  0.12634883  0.21462165    -0.19800
H430        H  0.26515825  0.12029241  0.21656714     0.17960
H431        H  0.20957781  0.04549043  0.27897957     0.17970
F432        F  0.26852914  0.04133335  0.28277082    -0.19790
C433        C  0.25126185  0.25593262  0.46077991    -0.21230
C434        C  0.22666991  0.24040942  0.44835932    -0.09270
C435        C  0.20004377  0.25670184  0.44227804     0.29590
C436        C  0.20052448  0.28776227  0.44247448    -0.21230
C437        C  0.22748634  0.30338570  0.44779384    -0.09280
C438        C  0.25187813  0.28739470  0.46020627     0.29600
F439        F  0.27739508  0.30181775  0.46866039    -0.19800
H440        H  0.27136656  0.24389738  0.46761039     0.17960
H441        H  0.18077751  0.29886204  0.43349880     0.17970
F442        F  0.17502001  0.24368096  0.43066087    -0.19790
C443        C  0.25463192  0.25578410  0.03772972    -0.21230
C444        C  0.22965321  0.24036136  0.04996105    -0.09270
C445        C  0.20282686  0.25678825  0.05487127     0.29590
C446        C  0.20335020  0.28782834  0.05390309    -0.21230
C447        C  0.23052158  0.30343040  0.04912790    -0.09280
C448        C  0.25527919  0.28726637  0.03761768     0.29600
F449        F  0.28101446  0.30153867  0.02914052    -0.19800
H450        H  0.27489753  0.24369899  0.03143550     0.17960
H451        H  0.18318604  0.29891392  0.06196922     0.17970
F452        F  0.17727211  0.24407058  0.06604256    -0.19790
C453        C  0.49646672  0.04335134  0.28836807    -0.21230
C454        C  0.01193051  0.01884730  0.30136653    -0.09270
C455        C  0.49552188  0.99232037  0.30796783     0.29590
C456        C  0.46448595  0.99269051  0.30723771    -0.21230
C457        C  0.44884750  0.01950574  0.30113505    -0.09280
C458        C  0.46492143  0.04377643  0.28829658     0.29600
F459        F  0.45039765  0.06887603  0.27853320    -0.19800
H460        H  0.00857137  0.06337426  0.28121156     0.17960
H461        H  0.45330580  0.47300724  0.31648539     0.17970
F462        F  0.00832503  0.46748836  0.32049723    -0.19790
C463        C  0.46543094  0.04787525  0.17632897    -0.21230
C464        C  0.45006675  0.02707774  0.19462220    -0.09270
C465        C  0.46647928  0.00725963  0.21314643     0.29590
C466        C  0.49802175  0.00691052  0.21131663    -0.21230
C467        C  0.01286278  0.02616262  0.19084863    -0.09280
C468        C  0.49618436  0.04704993  0.17384420     0.29600
F469        F  0.00910391  0.06420874  0.15183274    -0.19800
H470        H  0.45352762  0.06269367  0.16095172     0.17960
H471        H  0.01066183  0.99059316  0.22438843     0.17970
F472        F  0.45202267  0.98720117  0.23130613    -0.19790
C473        C  0.46640515  0.23819107  0.48567698    -0.21230
C474        C  0.49051141  0.22470579  0.47005988    -0.09270
C475        C  0.01715764  0.21811947  0.48608976     0.29590
C476        C  0.01715944  0.21925387  0.01709857    -0.21230
C477        C  0.49052053  0.22558888  0.03298984    -0.09280
C478        C  0.46634535  0.23864379  0.01717179     0.29600
F479        F  0.44154005  0.24875186  0.03196411    -0.19800
H480        H  0.44635545  0.24536510  0.47379808     0.17960
H481        H  0.03678494  0.20992640  0.02811848     0.17970
F482        F  0.04159680  0.20514033  0.47303035    -0.19790
C483        C  0.00205718  0.31053890  0.01655701    -0.21230
C484        C  0.47790590  0.32391827  0.03219242    -0.09270
C485        C  0.45130952  0.33063778  0.01617078     0.29590
C486        C  0.45130227  0.32952720  0.48517799    -0.21230
C487        C  0.47782306  0.32286895  0.46920693    -0.09280
C488        C  0.00208185  0.30998389  0.48505373     0.29600
F489        F  0.02680451  0.29965231  0.47028187    -0.19800
H490        H  0.02210600  0.30336648  0.02844263     0.17960
H491        H  0.43167139  0.33890630  0.47421572     0.17970
F492        F  0.42689123  0.34362202  0.02927075    -0.19790
C493        C  0.29451460  0.00522579  0.46952168    -0.21230
C494        C  0.28587072  0.48916482  0.99527238    -0.09270
C495        C  0.27163792  0.00463248  0.01898069     0.29590
C496        C  0.27144639  0.03617883  0.01897000    -0.21230
C497        C  0.28550904  0.05232184  0.99541409    -0.09280
C498        C  0.29502665  0.03622447  0.46959659     0.29600
F499        F  0.30960463  0.04971433  0.44617777    -0.19800
H500        H  0.30548909  0.49441421  0.45061822     0.17960
H501        H  0.26275242  0.04783674  0.03852069     0.17970
F502        F  0.26030032  0.48947343  0.04312513    -0.19790
C503        C  0.16221636  0.04199749  0.02785844    -0.21230
C504        C  0.17870790  0.05812047  0.50617520    -0.09270
C505        C  0.19705994  0.04253968  0.48561631     0.29590
C506        C  0.19624903  0.01100479  0.48504666    -0.21230
C507        C  0.17697280  0.49530378  0.00483218    -0.09280
C508        C  0.16064656  0.01118876  0.02683579     0.29600
F509        F  0.13968838  0.49754472  0.04472066    -0.19800
H510        H  0.14714143  0.05328323  0.04342610     0.17960
H511        H  0.20891530  0.49902686  0.46797453     0.17970
F512        F  0.21382295  0.05777882  0.46492632    -0.19790
C513        C  0.16853864  0.46380407  0.49981000     0.03210
C514        C  0.16348702  0.44594596  0.52502316    -0.12940
C515        C  0.13885871  0.42625795  0.52605515     0.00710
C516        C  0.12516751  0.41792667  0.99852260    -0.11470
C517        C  0.13491109  0.43181563  0.97119455     0.03200
C518        C  0.15543432  0.45586837  0.97260638    -0.10890
H519        H  0.17520488  0.45204156  0.54547523     0.08800
H520        H  0.10769100  0.40090741  0.99832366     0.06320
H521        H  0.15997597  0.46956647  0.95280990     0.06170
C522        C  0.29717730  0.08306817  0.50011669     0.03210
C523        C  0.31050972  0.09091375  0.52744851    -0.12940
C524        C  0.33073016  0.11522926  0.52903633     0.00710
C525        C  0.34049687  0.12922341  0.50183777    -0.11470
C526        C  0.32669150  0.12136578  0.97431122     0.03200
C527        C  0.30199651  0.10174655  0.97519770    -0.10890
H528        H  0.30612747  0.07741331  0.54738204     0.08800
H529        H  0.35788870  0.14632481  0.50216641     0.06320
H530        H  0.28913655  0.09749636  0.95499920     0.06170
C531        C  0.48268112  0.33800139  0.56200900     0.03210
C532        C  0.00967215  0.35278869  0.56831903    -0.12940
C533        C  0.01166701  0.37342916  0.59213414     0.00710
C534        C  0.48452239  0.38305071  0.60641130    -0.11470
C535        C  0.45694881  0.36854378  0.59919969     0.03200
C536        C  0.45812783  0.34305382  0.58074596    -0.10890
H537        H  0.02927549  0.34853801  0.55438258     0.08800
H538        H  0.48494376  0.40076469  0.62303419     0.06320
H539        H  0.43838822  0.32903505  0.57791960     0.06170
C540        C  0.48554585  0.21024105  0.94043410     0.03210
C541        C  0.45833015  0.19560709  0.93439043    -0.12940
C542        C  0.45616904  0.17445978  0.91106637     0.00710
C543        C  0.48309586  0.16474454  0.89658692    -0.11470
C544        C  0.01073334  0.17929437  0.90316073     0.03200
C545        C  0.01004025  0.20473360  0.92166401    -0.10890
H546        H  0.43873765  0.20020829  0.94822542     0.08800
H547        H  0.48244957  0.14685991  0.88014985     0.06320
H548        H  0.03000574  0.21847279  0.92423738     0.06170
C549        C  0.29894806  0.45851898  0.49920189     0.03210
C550        C  0.31347638  0.45082085  0.52592181    -0.12940
C551        C  0.33391983  0.42662363  0.52736542     0.00710
C552        C  0.34326865  0.41293543  0.49984659    -0.11470
C553        C  0.32921431  0.42172165  0.97231247     0.03200
C554        C  0.30459744  0.44146760  0.97376191    -0.10890
H555        H  0.30950523  0.46434227  0.54574676     0.08800
H556        H  0.36059843  0.39578127  0.49991625     0.06320
H557        H  0.29168653  0.44656470  0.95373787     0.06170
C558        C  0.16913356  0.08941308  0.00129546     0.03210
C559        C  0.16315542  0.10648899  0.52657772    -0.12940
C560        C  0.13725404  0.12452552  0.52806873     0.00710
C561        C  0.12272758  0.13258468  0.50059141    -0.11470
C562        C  0.13282244  0.11943402  0.97308151     0.03200
C563        C  0.15481000  0.09661585  0.97450084    -0.10890
H564        H  0.17560167  0.10078052  0.54676952     0.08800
H565        H  0.10423224  0.14847764  0.50061075     0.06320
H566        H  0.15974659  0.08301419  0.95491087     0.06170
C567        C  0.48188963  0.33769919  0.93937308     0.03210
C568        C  0.00867448  0.35279692  0.93239747    -0.12940
C569        C  0.01015682  0.37412580  0.90886558     0.00710
C570        C  0.48283036  0.38368303  0.89515150    -0.11470
C571        C  0.45536492  0.36909109  0.90299595     0.03200
C572        C  0.45658122  0.34376404  0.92197738    -0.10890
H573        H  0.02852479  0.34853171  0.94580975     0.08800
H574        H  0.48302830  0.40148342  0.87837633     0.06320
H575        H  0.43652792  0.33041923  0.92602170     0.06170
C576        C  0.48605349  0.20978370  0.56226451     0.03210
C577        C  0.01107503  0.20339200  0.57995892    -0.12940
C578        C  0.01216126  0.17747942  0.59815375     0.00710
C579        C  0.48469781  0.16231081  0.60487920    -0.11470
C580        C  0.45757153  0.17193552  0.59078963     0.03200
C581        C  0.45933006  0.19410704  0.56808265    -0.10890
H582        H  0.03109000  0.21699858  0.57668482     0.08800
H583        H  0.48434681  0.14395551  0.62104239     0.06320
H584        H  0.43972904  0.19863317  0.55438463     0.06170
C585        C  0.41825957  0.02230088  0.68713265     0.03210
C586        C  0.41030058  0.49516203  0.67397991    -0.12940
C587        C  0.38753353  0.49380986  0.65209288     0.00710
C588        C  0.37506809  0.02133548  0.64109329    -0.11470
C589        C  0.38355246  0.04896136  0.65474970     0.03200
C590        C  0.40134226  0.04776769  0.68072912    -0.10890
H591        H  0.42348297  0.47530013  0.67933946     0.08800
H592        H  0.35935498  0.02125263  0.62252917     0.06320
H593        H  0.40743208  0.06826208  0.69238293     0.06170
C594        C  0.04201346  0.02313568  0.81526238     0.03210
C595        C  0.04918604  0.05014869  0.82960866    -0.12940
C596        C  0.07303369  0.05168527  0.85031190     0.00710
C597        C  0.08666410  0.02437843  0.86014739    -0.11470
C598        C  0.07882485  0.49695756  0.84594398     0.03200
C599        C  0.06019370  0.49822558  0.82061181    -0.10890
H600        H  0.03586269  0.07008752  0.82512985     0.08800
H601        H  0.10338935  0.02455679  0.87780415     0.06320
H602        H  0.05701925  0.47841561  0.80690351     0.06170
C603        C  0.41928790  0.02365327  0.81644477     0.03210
C604        C  0.41303681  0.05008356  0.83208193    -0.12940
C605        C  0.38976782  0.05142899  0.85372291     0.00710
C606        C  0.37635336  0.02383224  0.86364740    -0.11470
C607        C  0.38407190  0.49651368  0.84878095     0.03200
C608        C  0.40167281  0.49845758  0.82252006    -0.10890
H609        H  0.42674592  0.06981388  0.82778841     0.08800
H610        H  0.36020320  0.02368636  0.88198784     0.06320
H611        H  0.40493862  0.47882826  0.80853628     0.06170
C612        C  0.04456486  0.02209970  0.68250785     0.03210
C613        C  0.06139253  0.04786547  0.67735747    -0.12940
C614        C  0.08148976  0.04948148  0.65301836     0.00710
C615        C  0.09124607  0.02201987  0.63969852    -0.11470
C616        C  0.07819289  0.49423324  0.64953389     0.03200
C617        C  0.05363636  0.49516226  0.66964940    -0.10890
H618        H  0.05419164  0.06810878  0.68887940     0.08800
H619        H  0.10864800  0.02222444  0.62253104     0.06320
H620        H  0.04041782  0.47509036  0.67419746     0.06170
C621        C  0.23382884  0.21081223  0.56539261     0.03210
C622        C  0.26088660  0.20413310  0.57998192    -0.12940
C623        C  0.26264393  0.18089958  0.60154516     0.00710
C624        C  0.23533478  0.16780372  0.61240582    -0.11470
C625        C  0.20772607  0.17541989  0.59816649     0.03200
C626        C  0.20896246  0.19284664  0.57176164    -0.10890
H627        H  0.28083129  0.21727988  0.57492136     0.08800
H628        H  0.23564356  0.15170531  0.63081224     0.06320
H629        H  0.18921108  0.19512363  0.55775060     0.06170
O630        O  0.39592750  0.19127079  0.65015051    -0.85270
O631        O  0.36380258  0.15098153  0.68708535    -0.82310
C632        C  0.34441709  0.13095467  0.69280701     0.98190
O633        O  0.33151442  0.11746864  0.67128195    -0.82350
O634        O  0.29815455  0.15180479  0.63063180    -0.84990
C635        C  0.29345181  0.16999951  0.60929612     1.02720
O636        O  0.31500503  0.17767832  0.59202690    -0.77760
O637        O  0.35914300  0.20974014  0.62284845    -0.77940
C638        C  0.38101291  0.21373846  0.64041901     1.02670
O639        O  0.42217433  0.14165958  0.61937162    -0.85270
O640        O  0.38923044  0.10188754  0.65594731    -0.82330
C641        C  0.37623154  0.07983186  0.64337035     0.98210
O642        O  0.35683466  0.08460259  0.62328481    -0.82360
O643        O  0.32363385  0.11812989  0.58186639    -0.84960
C644        C  0.33960442  0.12597601  0.55934145     1.02680
O645        O  0.36112962  0.14417984  0.56257840    -0.77780
O646        O  0.40471113  0.17827935  0.59138829    -0.77930
C647        C  0.42668765  0.16250980  0.60048792     1.02650
Cr648      Cr  0.39012826  0.14656286  0.65065340     1.93740
Cr649      Cr  0.33012410  0.12052727  0.62652317     1.93210
Cr650      Cr  0.35992679  0.17496997  0.59475936     1.39100
O651        O  0.36003058  0.14736982  0.62413114    -1.23020
C652        C  0.23133821  0.21078766  0.93374180     0.03210
C653        C  0.25838967  0.20466009  0.91885131    -0.12940
C654        C  0.26082688  0.18079455  0.89837757     0.00710
C655        C  0.23383955  0.16637449  0.88866529    -0.11470
C656        C  0.20601795  0.17364315  0.90299250     0.03200
C657        C  0.20689354  0.19209791  0.92849861    -0.10890
H658        H  0.27783748  0.21871908  0.92299251     0.08800
H659        H  0.23455266  0.14968350  0.87102204     0.06320
H660        H  0.18707979  0.19471436  0.94253935     0.06170
C661        C  0.30121676  0.08916057  0.75149794     0.03210
C662        C  0.31764995  0.09534968  0.72568080    -0.12940
C663        C  0.33671066  0.12053887  0.72413171     0.00710
C664        C  0.34600425  0.13393152  0.75174913    -0.11470
C665        C  0.33330127  0.12331377  0.77954152     0.03200
C666        C  0.30982365  0.10204636  0.77840915    -0.10890
H667        H  0.31053284  0.08392884  0.70541754     0.08800
H668        H  0.36244483  0.15194733  0.75163093     0.06320
H669        H  0.29650492  0.09688418  0.79831719     0.06170
O670        O  0.35861299  0.14971913  0.94042852    -0.85270
O671        O  0.40331659  0.18177152  0.90985161    -0.82310
C672        C  0.42537705  0.16581007  0.90106835     0.98190
O673        O  0.42129599  0.14510709  0.88221322    -0.82350
O674        O  0.38999574  0.10425705  0.84707817    -0.84990
C675        C  0.37965727  0.08238290  0.86246207     1.02720
O676        O  0.35978390  0.08718946  0.88231379    -0.77760
O677        O  0.32339946  0.12130986  0.92122399    -0.77940
C678        C  0.33715557  0.13145083  0.94396259     1.02670
O679        O  0.31336526  0.18064929  0.90720013    -0.85270
O680        O  0.35805049  0.21235029  0.87627585    -0.82330
C681        C  0.38014432  0.21608475  0.85875017     0.98210
O682        O  0.39522749  0.19352747  0.84996520    -0.82360
O683        O  0.36207824  0.15266787  0.81540775    -0.84960
C684        C  0.34301173  0.13218758  0.81046797     1.02680
O685        O  0.33254739  0.11678455  0.83229765    -0.77780
O686        O  0.29749184  0.15116504  0.87117272    -0.77930
C687        C  0.29210993  0.17072877  0.89094646     1.02650
Cr688      Cr  0.35842001  0.17852674  0.90593504     1.93740
Cr689      Cr  0.38946068  0.14900456  0.85104207     1.93210
Cr690      Cr  0.33092189  0.12160071  0.87689076     1.39100
O691        O  0.35956052  0.14977626  0.87796594    -1.23020
C692        C  0.42220808  0.27055612  0.68602511     0.03210
C693        C  0.41638077  0.24544382  0.66846495    -0.12940
C694        C  0.39091703  0.24433522  0.64994807     0.00710
C695        C  0.37610622  0.27176357  0.64258866    -0.11470
C696        C  0.38554064  0.29895674  0.65643240     0.03200
C697        C  0.40719389  0.29736449  0.67941461    -0.10890
H698        H  0.42937882  0.22524703  0.67287693     0.08800
H699        H  0.35797623  0.27198420  0.62637296     0.06320
H700        H  0.41152472  0.31698265  0.69308708     0.06170
C701        C  0.23414464  0.33309056  0.56411699     0.03210
C702        C  0.20863791  0.35030224  0.57016994    -0.12940
C703        C  0.20710150  0.36875577  0.59560699     0.00710
C704        C  0.23445121  0.37720426  0.60965924    -0.11470
C705        C  0.26196832  0.36411513  0.59975750     0.03200
C706        C  0.26081568  0.34036450  0.57902074    -0.10890
H707        H  0.18872634  0.34670697  0.55669150     0.08800
H708        H  0.23439458  0.39388844  0.62732177     0.06320
H709        H  0.28090607  0.32716761  0.57511386     0.06170
O710        O  0.35575514  0.33390953  0.62721016    -0.85270
O711        O  0.31469053  0.36614030  0.59259875    -0.82310
C712        C  0.29245445  0.37528006  0.60807248     0.98190
O713        O  0.29627669  0.39485458  0.62813786    -0.82350
O714        O  0.32730763  0.42971536  0.66936279    -0.84990
C715        C  0.33598938  0.41416811  0.69167366     1.02720
O716        O  0.35497439  0.39338572  0.68796680    -0.77760
O717        O  0.39026631  0.35183329  0.65724623    -0.77940
C718        C  0.37577703  0.32967046  0.64685035     1.02670
O719        O  0.40400993  0.36390934  0.59786552    -0.85270
O720        O  0.36295568  0.39708821  0.56322118    -0.82330
C721        C  0.34232328  0.41606076  0.55832528     0.98210
O722        O  0.32634901  0.42546858  0.58006662    -0.82360
O723        O  0.35917971  0.45868724  0.62195442    -0.85040
C724        C  0.37762160  0.46310342  0.64303710     1.02680
O725        O  0.38679561  0.44113810  0.65893484    -0.77780
O726        O  0.42140802  0.39898740  0.62753896    -0.77930
C727        C  0.42609920  0.37820271  0.60884934     1.02650
Cr728      Cr  0.35931793  0.36789207  0.59771217     1.93740
Cr729      Cr  0.32985650  0.42462598  0.62488826     1.93210
Cr730      Cr  0.38582735  0.39641444  0.65527521     1.39100
O731        O  0.35849366  0.39638575  0.62584653    -1.23020
C732        C  0.29431635  0.45919826  0.74999473     0.03210
C733        C  0.30172052  0.44453343  0.72322164    -0.12940
C734        C  0.32520542  0.42328745  0.72204556     0.00710
C735        C  0.33850010  0.41351275  0.74942674    -0.11470
C736        C  0.33034563  0.42781067  0.77672118     0.03200
C737        C  0.31163918  0.45319817  0.77538543    -0.10890
H738        H  0.28851626  0.44881113  0.70323381     0.08800
H739        H  0.35503824  0.39558995  0.74943657     0.06320
H740        H  0.30737146  0.46622233  0.79549122     0.06170
C741        C  0.41975366  0.27184112  0.80968614     0.03210
C742        C  0.41474153  0.24715878  0.82838255    -0.12940
C743        C  0.38989844  0.24641094  0.84791138     0.00710
C744        C  0.37556265  0.27398088  0.85513921    -0.11470
C745        C  0.38502815  0.30100530  0.84055615     0.03200
C746        C  0.40571651  0.29911253  0.81657930    -0.10890
H747        H  0.42781927  0.22696733  0.82431543     0.08800
H748        H  0.35802210  0.27449827  0.87215699     0.06320
H749        H  0.41015623  0.31877064  0.80268598     0.06170
C750        C  0.23156277  0.33301205  0.93260044     0.03210
C751        C  0.20640914  0.35078945  0.92695142    -0.12940
C752        C  0.20530095  0.37017496  0.90193153     0.00710
C753        C  0.23289409  0.37822040  0.88759803    -0.11470
C754        C  0.26011326  0.36402920  0.89692364     0.03200
C755        C  0.25832896  0.33983057  0.91738777    -0.10890
H756        H  0.18641743  0.34693639  0.94048723     0.08800
H757        H  0.23327155  0.39546973  0.87026226     0.06320
H758        H  0.27804065  0.32599072  0.92101616     0.06170
O759        O  0.32367275  0.42299046  0.91918619    -0.85270
O760        O  0.35664672  0.45960477  0.87901088    -0.82310
C761        C  0.37544275  0.46517076  0.85830241     0.98190
O762        O  0.38692736  0.44357090  0.84350443    -0.82350
O763        O  0.42041236  0.40050388  0.87528853    -0.84990
C764        C  0.42469765  0.37844308  0.89275726     1.02720
O765        O  0.40243277  0.36276018  0.90171098    -0.77760
O766        O  0.35980911  0.39406873  0.93632691    -0.77940
C767        C  0.33854033  0.41228987  0.94122946     1.02670
O768        O  0.29571873  0.39454703  0.86902208    -0.85270
O769        O  0.32859654  0.43124281  0.82979655    -0.82330
C770        C  0.33962974  0.41757736  0.80730179     0.98210
O771        O  0.35843448  0.39671468  0.81125053    -0.82360
O772        O  0.39193963  0.35383913  0.84227847    -0.84960
C773        C  0.37607498  0.33154566  0.85078361     1.02680
O774        O  0.35492204  0.33522327  0.86941566    -0.77780
O775        O  0.31277464  0.36493113  0.90457815    -0.77930
C776        C  0.29102616  0.37468506  0.88887689     1.02650
Cr777      Cr  0.32874497  0.42456017  0.87431368     1.93740
Cr778      Cr  0.38687419  0.39857867  0.84564769     1.93210
Cr779      Cr  0.35760660  0.36693073  0.90062485     1.39100
O780        O  0.35790587  0.39688129  0.87366943    -1.23020
C781        C  0.17088688  0.45553944  0.74955846     0.03210
C782        C  0.15238534  0.45071044  0.77433378    -0.12940
C783        C  0.13364934  0.42532888  0.77605298     0.00710
C784        C  0.12568554  0.41093870  0.74862639    -0.11470
C785        C  0.13969616  0.42053093  0.72116508     0.03200
C786        C  0.16400148  0.44085223  0.72278440    -0.10890
H787        H  0.15578873  0.46475893  0.79386554     0.08800
H788        H  0.10874382  0.39339512  0.74855653     0.06320
H789        H  0.17784317  0.44501265  0.70305021     0.06170
C790        C  0.04829013  0.27507545  0.81269159     0.03210
C791        C  0.06347623  0.24834597  0.81928972    -0.12940
C792        C  0.08449845  0.24655535  0.84284777     0.00710
C793        C  0.09382001  0.27380645  0.85689140    -0.11470
C794        C  0.07922389  0.30137560  0.84922374     0.03200
C795        C  0.05402533  0.30017747  0.83030420    -0.10890
H796        H  0.05942491  0.22873811  0.80553024     0.08800
H797        H  0.11147260  0.27348533  0.87362193     0.06320
H798        H  0.04065853  0.32018394  0.82623764     0.06170
O799        O  0.10550974  0.39540491  0.81269073    -0.85270
O800        O  0.07337030  0.35441750  0.84897107    -0.82310
C801        C  0.08851814  0.33225823  0.85903486     0.98190
O802        O  0.10995165  0.33688829  0.87701672    -0.82350
O803        O  0.15243429  0.37118569  0.90845947    -0.84990
C804        C  0.17457689  0.38054550  0.89283894     1.02720
O805        O  0.17005816  0.39837089  0.87112135    -0.77760
O806        O  0.13589114  0.43055152  0.82893481    -0.77940
C807        C  0.12442217  0.41599702  0.80727487     1.02670
O808        O  0.07724585  0.44388340  0.84239001    -0.85270
O809        O  0.04512233  0.40353719  0.87890377    -0.82330
C810        C  0.04087416  0.38307950  0.89829400     0.98210
O811        O  0.06295874  0.36754629  0.90753521    -0.82360
O812        O  0.10500328  0.40261281  0.93727462    -0.84960
C813        C  0.12589247  0.42147632  0.94081469     1.02680
O814        O  0.14138100  0.43044024  0.91841384    -0.77780
O815        O  0.10752483  0.46221094  0.87641279    -0.77930
C816        C  0.08841281  0.46631033  0.85593914     1.02650
Cr817      Cr  0.07792874  0.39926495  0.84824873     1.93740
Cr818      Cr  0.10765965  0.37202617  0.90491160     1.93210
Cr819      Cr  0.13612886  0.42777854  0.87380363     1.39100
O820        O  0.10738149  0.39958132  0.87547407    -1.23020
C821        C  0.17425233  0.08829631  0.75085923     0.03210
C822        C  0.16404620  0.10000250  0.77794409    -0.12940
C823        C  0.13947207  0.11991363  0.77872674     0.00710
C824        C  0.12666036  0.12974660  0.75107122    -0.11470
C825        C  0.13701595  0.11714771  0.72358818     0.03200
C826        C  0.15813127  0.09376793  0.72474831    -0.10890
H827        H  0.17684194  0.09535873  0.79818472     0.08800
H828        H  0.10898126  0.14654909  0.75096202     0.06320
H829        H  0.16657924  0.08370202  0.70418200     0.06170
O830        O  0.13780754  0.11757123  0.92032345    -0.85270
O831        O  0.10291154  0.08617887  0.87928911    -0.82310
C832        C  0.08413651  0.08221709  0.85846714     0.98190
O833        O  0.07603445  0.10424012  0.84210568    -0.82350
O834        O  0.04476465  0.14807665  0.87428632    -0.84990
C835        C  0.04111746  0.16929954  0.89267864     1.02720
O836        O  0.06381326  0.18343227  0.90261497    -0.77760
O837        O  0.10354562  0.14865784  0.93724551    -0.77940
C838        C  0.12326742  0.12875489  0.94215531     1.02670
O839        O  0.17048069  0.14511044  0.87282728    -0.85270
O840        O  0.13627797  0.11282625  0.83123410    -0.82330
C841        C  0.12813480  0.12871787  0.80891634     0.98210
O842        O  0.10986979  0.15016506  0.81249160    -0.82360
O843        O  0.07724615  0.19384062  0.84332808    -0.84960
C844        C  0.09305053  0.21550198  0.85296889     1.02680
O845        O  0.11329945  0.21053376  0.87223690    -0.77780
O846        O  0.15297391  0.17592183  0.90697795    -0.77930
C847        C  0.17515351  0.16423587  0.89318548     1.02650
Cr848      Cr  0.13434499  0.11812278  0.87573886     1.93740
Cr849      Cr  0.07954165  0.14897268  0.84564326     1.93210
Cr850      Cr  0.10832730  0.17700971  0.90223248     1.39100
O851        O  0.10744772  0.14808248  0.87453685    -1.23020
C852        C  0.04931376  0.27416954  0.68991435     0.03210
C853        C  0.06384548  0.24701930  0.68354465    -0.12940
C854        C  0.08474489  0.24495766  0.65976472     0.00710
C855        C  0.09444270  0.27196036  0.64519734    -0.11470
C856        C  0.07991785  0.29955821  0.65214655     0.03200
C857        C  0.05454560  0.29867704  0.67104919    -0.10890
H858        H  0.05937283  0.22742140  0.69750024     0.08800
H859        H  0.11222150  0.27139643  0.62843542     0.06320
H860        H  0.04082716  0.31859813  0.67415273     0.06170
O861        O  0.06435091  0.36560548  0.59273806    -0.85270
O862        O  0.10737688  0.39816502  0.56062357    -0.82310
C863        C  0.12860857  0.41658277  0.55660560     0.98190
O864        O  0.14272727  0.42692520  0.57903337    -0.82350
O865        O  0.10832071  0.45946684  0.62043562    -0.84990
C866        C  0.08924884  0.46368633  0.64111091     1.02720
O867        O  0.08005819  0.44158800  0.65684396    -0.77760
O868        O  0.04721797  0.40159304  0.62177191    -0.77940
C869        C  0.04259533  0.38150929  0.60234339     1.02670
O870        O  0.11119987  0.33431902  0.62356491    -0.85270
O871        O  0.15409417  0.36747597  0.59097284    -0.82330
C872        C  0.17628956  0.37805100  0.60542099     0.98210
O873        O  0.17186730  0.39651363  0.62642433    -0.82360
O874        O  0.13859853  0.42897197  0.66853938    -0.84960
C875        C  0.12909331  0.41273351  0.69024518     1.02680
O876        O  0.10974074  0.39246175  0.68546939    -0.77780
O877        O  0.07499906  0.35248729  0.65156929    -0.77930
C878        C  0.08969865  0.33011462  0.64174212     1.02650
Cr879      Cr  0.10927880  0.36889050  0.59463985     1.93740
Cr880      Cr  0.13773556  0.42550032  0.62361720     1.93210
Cr881      Cr  0.08060191  0.39700613  0.65143475     1.39100
O882        O  0.10929810  0.39706037  0.62321826    -1.23020
O883        O  0.04688820  0.14578460  0.62586486    -0.85270
O884        O  0.07967099  0.10247001  0.65819298    -0.82310
C885        C  0.09033735  0.08056843  0.64329997     0.98190
O886        O  0.10854113  0.08559585  0.62203523    -0.82350
O887        O  0.14135692  0.12066446  0.58102303    -0.84990
C888        C  0.12706715  0.13249144  0.55918593     1.02720
O889        O  0.10624252  0.15111325  0.56435349    -0.77760
O890        O  0.06517023  0.18351468  0.59963477    -0.77940
C891        C  0.04276267  0.16793547  0.60846642     1.02670
O892        O  0.07674975  0.19227574  0.65820497    -0.85270
O893        O  0.10952701  0.14881155  0.68922584    -0.82330
C894        C  0.12785080  0.12749321  0.69304206     0.98210
O895        O  0.13839631  0.11347555  0.67049140    -0.82360
O896        O  0.17219315  0.14793974  0.62955720    -0.84960
C897        C  0.17685941  0.16677015  0.60872595     1.02680
O898        O  0.15467044  0.17825171  0.59488322    -0.77780
O899        O  0.11420800  0.20984068  0.63101802    -0.77930
C900        C  0.09317297  0.21416722  0.64965101     1.02650
Cr901      Cr  0.08068753  0.14737259  0.65527501     1.93740
Cr902      Cr  0.13757072  0.11952929  0.62585741     1.93210
Cr903      Cr  0.10994722  0.17807877  0.59994265     1.39100
O904        O  0.10936261  0.14819606  0.62695119    -1.23020
C905        C  0.04154040  0.30567111  0.76682236    -0.21230
C906        C  0.03392413  0.27941262  0.78287600    -0.09270
C907        C  0.02063873  0.25541948  0.76716322     0.29590
C908        C  0.02143444  0.25536090  0.73566799    -0.21230
C909        C  0.03546466  0.27917231  0.71991244    -0.09280
C910        C  0.04293739  0.30555008  0.73582908     0.29600
F911        F  0.05684842  0.32948143  0.72257988    -0.19800
H912        H  0.05140209  0.32500384  0.77778332     0.17960
H913        H  0.01389188  0.23546836  0.72385902     0.17970
F914        F  0.00975180  0.23093157  0.78208205    -0.19790
C915        C  0.24811948  0.46476779  0.78040743    -0.21230
C916        C  0.26394192  0.47265882  0.75407223    -0.09270
C917        C  0.24771543  0.48526688  0.72990148     0.29590
C918        C  0.21620799  0.48359875  0.72987460    -0.21230
C919        C  0.20091188  0.46948272  0.75394511    -0.09280
C920        C  0.21716707  0.46252756  0.78032663     0.29600
F921        F  0.20440108  0.44846173  0.80445115    -0.19800
H922        H  0.25933501  0.45538247  0.79990824     0.17960
H923        H  0.20409769  0.49069123  0.70992594     0.17970
F924        F  0.26221637  0.49649405  0.70531199    -0.19790
C925        C  0.44783383  0.28966065  0.76365905    -0.21230
C926        C  0.43230094  0.26671760  0.77925915    -0.09270
C927        C  0.42275488  0.24108754  0.76328545     0.29590
C928        C  0.42498606  0.24052851  0.73239230    -0.21230
C929        C  0.43514597  0.26589846  0.71634177    -0.09280
C930        C  0.44927164  0.28931164  0.73217784     0.29600
F931        F  0.46174986  0.31303989  0.71727449    -0.19800
H932        H  0.45637340  0.30908548  0.77556395     0.17960
H933        H  0.41396482  0.22191789  0.72126506     0.17970
F934        F  0.40639194  0.21865532  0.77640028    -0.19790
C935        C  0.25351564  0.10276484  0.72920279    -0.21230
C936        C  0.26927175  0.08239515  0.74740711    -0.09270
C937        C  0.25349962  0.06102215  0.76482937     0.29590
C938        C  0.22191270  0.06111522  0.76468683    -0.21230
C939        C  0.20650127  0.08272820  0.74738821    -0.09280
C940        C  0.22268355  0.10336310  0.72948497     0.29600
F941        F  0.20883541  0.12635058  0.71463276    -0.19800
H942        H  0.26515550  0.12029395  0.71658043     0.17960
H943        H  0.20957174  0.04548147  0.77897737     0.17970
F944        F  0.26852321  0.04132299  0.78276979    -0.19790
C945        C  0.25125836  0.25593102  0.96077994    -0.21230
C946        C  0.22666556  0.24040869  0.94836009    -0.09270
C947        C  0.20003973  0.25670134  0.94228017     0.29590
C948        C  0.20052222  0.28776180  0.94247389    -0.21230
C949        C  0.22748500  0.30338469  0.94779231    -0.09280
C950        C  0.25187625  0.28739300  0.96020498     0.29600
F951        F  0.27739380  0.30181485  0.96865916    -0.19800
H952        H  0.27136303  0.24389487  0.96760913     0.17960
H953        H  0.18077533  0.29886141  0.93349803     0.17970
F954        F  0.17501493  0.24367991  0.93066570    -0.19790
C955        C  0.25463760  0.25577928  0.53773302    -0.21230
C956        C  0.22965955  0.24035590  0.54996511    -0.09270
C957        C  0.20283428  0.25678396  0.55488095     0.29590
C958        C  0.20335693  0.28782390  0.55391061    -0.21230
C959        C  0.23052715  0.30342577  0.54913152    -0.09280
C960        C  0.25528429  0.28726170  0.53762029     0.29600
F961        F  0.28101885  0.30153462  0.52914174    -0.19800
H962        H  0.27490239  0.24369460  0.53143536     0.17960
H963        H  0.18319391  0.29891037  0.56197891     0.17970
F964        F  0.17728110  0.24406799  0.56605769    -0.19790
C965        C  0.49646466  0.04335739  0.78836954    -0.21230
C966        C  0.01192641  0.01885183  0.80136769    -0.09270
C967        C  0.49551500  0.99232738  0.80797173     0.29590
C968        C  0.46447894  0.99270214  0.80724576    -0.21230
C969        C  0.44884363  0.01951917  0.80114265    -0.09280
C970        C  0.46491947  0.04378721  0.78830198     0.29600
F971        F  0.45039806  0.06888881  0.77854024    -0.19800
H972        H  0.00857137  0.06337843  0.78121118     0.17960
H973        H  0.45329663  0.47302114  0.81649583     0.17970
F974        F  0.00831653  0.46749395  0.82050003    -0.19790
C975        C  0.46543124  0.04786200  0.67634532    -0.21230
C976        C  0.45007192  0.02705856  0.69463617    -0.09270
C977        C  0.46648944  0.00724277  0.71315830     0.29590
C978        C  0.49803184  0.00689947  0.71132598    -0.21230
C979        C  0.01286796  0.02615547  0.69085805    -0.09280
C980        C  0.49618474  0.04704269  0.67385826     0.29600
F981        F  0.00909942  0.06420621  0.65184762    -0.19800
H982        H  0.45352444  0.06267999  0.66097033     0.17960
H983        H  0.01067573  0.99058281  0.72439503     0.17970
F984        F  0.45203785  0.98718054  0.73131777    -0.19790
C985        C  0.46641009  0.23820335  0.98567363    -0.21230
C986        C  0.49051361  0.22471425  0.97005583    -0.09270
C987        C  0.01715889  0.21812211  0.98608503     0.29590
C988        C  0.01715676  0.21925068  0.51710347    -0.21230
C989        C  0.49051568  0.22557932  0.53299380    -0.09280
C990        C  0.46633904  0.23863078  0.51717523     0.29600
F991        F  0.44153124  0.24873366  0.53196696    -0.19800
H992        H  0.44636134  0.24538116  0.97379528     0.17960
H993        H  0.03678363  0.20992700  0.52812400     0.17970
F994        F  0.04159497  0.20513764  0.97302513    -0.19790
C995        C  0.00206628  0.31052903  0.51655474    -0.21230
C996        C  0.47791661  0.32390870  0.53219203    -0.09270
C997        C  0.45132075  0.33063434  0.51617234     0.29590
C998        C  0.45129326  0.32952936  0.98517636    -0.21230
C999        C  0.47781650  0.32287583  0.96920707    -0.09280
C1000       C  0.00207489  0.30999260  0.98505594     0.29600
F1001       F  0.02679884  0.29966116  0.97028615    -0.19800
H1002       H  0.02211535  0.30335509  0.52843911     0.17960
H1003       H  0.43166126  0.33890469  0.97421309     0.17970
F1004       F  0.42690614  0.34362286  0.52927503    -0.19790
C1005       C  0.29463031  0.00545992  0.96953679    -0.21230
C1006       C  0.28572653  0.48895408  0.49526028    -0.09270
C1007       C  0.27156967  0.00446973  0.51898450     0.29590
C1008       C  0.27151574  0.03601500  0.51898847    -0.21230
C1009       C  0.28562956  0.05211177  0.49543467    -0.09280
C1010       C  0.29498345  0.03646250  0.96958778     0.29600
F1011       F  0.30949297  0.05000446  0.94615605    -0.19800
H1012       H  0.30566155  0.49469155  0.95066373     0.17960
H1013       H  0.26286989  0.04770798  0.53856097     0.17970
F1014       F  0.26019219  0.48934434  0.54313137    -0.19790
C1015       C  0.16219681  0.04199536  0.52784620    -0.21230
C1016       C  0.17870962  0.05812228  0.00617344    -0.09270
C1017       C  0.19704719  0.04254058  0.98560237     0.29590
C1018       C  0.19623632  0.01100583  0.98503471    -0.21230
C1019       C  0.17697290  0.49530249  0.50483156    -0.09280
C1020       C  0.16062907  0.01118679  0.52682239     0.29600
F1021       F  0.13965999  0.49754089  0.54469300    -0.19800
H1022       H  0.14711069  0.05328133  0.54340304     0.17960
H1023       H  0.20888983  0.49902795  0.96795317     0.17970
F1024       F  0.21379344  0.05777863  0.96489800    -0.19790
C1025       C  0.16852960  0.96380719  0.99981067     0.03210
C1026       C  0.16347929  0.94594707  0.02502263    -0.12940
C1027       C  0.13885047  0.92625987  0.02605474     0.00710
C1028       C  0.12517599  0.91792425  0.49852295    -0.11470
C1029       C  0.13491962  0.93181252  0.47119453     0.03200
C1030       C  0.15544450  0.95586396  0.47260568    -0.10890
H1031       H  0.17520029  0.95203891  0.04547402     0.08800
H1032       H  0.10769893  0.90090552  0.49832433     0.06320
H1033       H  0.15998681  0.96956176  0.45280911     0.06170
C1034       C  0.29700109  0.58329343  0.00012524     0.03210
C1035       C  0.31035999  0.59110032  0.02745273    -0.12940
C1036       C  0.33065001  0.61535445  0.02904151     0.00710
C1037       C  0.34045110  0.62932348  0.00184133    -0.11470
C1038       C  0.32677307  0.62122460  0.47430325     0.03200
C1039       C  0.30215514  0.60151022  0.47517843    -0.10890
H1040       H  0.30596028  0.57759153  0.04738702     0.08800
H1041       H  0.35790190  0.64635711  0.00216405     0.06320
H1042       H  0.28930883  0.59722640  0.45497482     0.06170
C1043       C  0.48266959  0.83801763  0.06200709     0.03210
C1044       C  0.00966320  0.85279988  0.06831818    -0.12940
C1045       C  0.01166001  0.87344348  0.09213052     0.00710
C1046       C  0.48451595  0.88307508  0.10640189    -0.11470
C1047       C  0.45693989  0.86857404  0.09918897     0.03200
C1048       C  0.45811564  0.84307958  0.08074069    -0.10890
H1049       H  0.02926750  0.84854237  0.05438532     0.08800
H1050       H  0.48493955  0.90079175  0.12302190     0.06320
H1051       H  0.43837443  0.82906252  0.07791795     0.06170
C1052       C  0.48554604  0.71022876  0.44043944     0.03210
C1053       C  0.45833280  0.69558942  0.43439768    -0.12940
C1054       C  0.45617389  0.67444111  0.41107409     0.00710
C1055       C  0.48310115  0.66473072  0.39659293    -0.11470
C1056       C  0.01073649  0.67928506  0.40316532     0.03200
C1057       C  0.01004084  0.70472407  0.42166894    -0.10890
H1058       H  0.43874028  0.70018769  0.44823360     0.08800
H1059       H  0.48245678  0.64684604  0.38015578     0.06320
H1060       H  0.03000458  0.71846598  0.42424114     0.06170
C1061       C  0.29910603  0.95873305  0.99918913     0.03210
C1062       C  0.31359619  0.95098458  0.02591733    -0.12940
C1063       C  0.33396758  0.92672443  0.02736064     0.00710
C1064       C  0.34328377  0.91301218  0.99984320    -0.11470
C1065       C  0.32915675  0.92159688  0.47232231     0.03200
C1066       C  0.30445803  0.94124153  0.47378524    -0.10890
H1067       H  0.30964185  0.96449651  0.04574361     0.08800
H1068       H  0.36055014  0.89579071  0.99991997     0.06320
H1069       H  0.29151940  0.94628957  0.45376892     0.06170
C1070       C  0.16913970  0.58941297  0.50129616     0.03210
C1071       C  0.16315218  0.60649089  0.02657670    -0.12940
C1072       C  0.13725240  0.62452947  0.02806870     0.00710
C1073       C  0.12272530  0.63258914  0.00059167    -0.11470
C1074       C  0.13282742  0.61943153  0.47308143     0.03200
C1075       C  0.15481821  0.59661629  0.47450075    -0.10890
H1076       H  0.17560066  0.60078447  0.04676766     0.08800
H1077       H  0.10423180  0.64848425  0.00061131     0.06320
H1078       H  0.15975809  0.58301579  0.45491068     0.06170
C1079       C  0.48189439  0.83768917  0.43937176     0.03210
C1080       C  0.00867742  0.85278988  0.43239613    -0.12940
C1081       C  0.01015815  0.87411692  0.40886275     0.00710
C1082       C  0.48283106  0.88366731  0.39514491    -0.11470
C1083       C  0.45536696  0.86907185  0.40298901     0.03200
C1084       C  0.45658527  0.84374873  0.42197526    -0.10890
H1085       H  0.02852736  0.84852876  0.44581032     0.08800
H1086       H  0.48302754  0.90146554  0.37836745     0.06320
H1087       H  0.43653278  0.83040356  0.42602297     0.06170
C1088       C  0.48605741  0.70979727  0.06226237     0.03210
C1089       C  0.01107903  0.70340171  0.07995543    -0.12940
C1090       C  0.01216100  0.67749107  0.09815347     0.00710
C1091       C  0.48469433  0.66232980  0.10488254    -0.11470
C1092       C  0.45756897  0.67195989  0.09079409     0.03200
C1093       C  0.45933073  0.69412793  0.06808454    -0.10890
H1094       H  0.03109658  0.71700378  0.07667832     0.08800
H1095       H  0.48434015  0.64397669  0.12104808     0.06320
H1096       H  0.43972940  0.69865684  0.05438779     0.06170
C1097       C  0.41825314  0.52232824  0.18711995     0.03210
C1098       C  0.41028721  0.99519138  0.17396873    -0.12940
C1099       C  0.38751681  0.99384302  0.15208511     0.00710
C1100       C  0.37505403  0.52137084  0.14108709    -0.11470
C1101       C  0.38354584  0.54899566  0.15474163     0.03200
C1102       C  0.40134135  0.54779873  0.18071735    -0.10890
H1103       H  0.42346721  0.97532756  0.17932689     0.08800
H1104       H  0.35933756  0.52129040  0.12252581     0.06320
H1105       H  0.40743798  0.56829159  0.19237027     0.06170
C1106       C  0.04201716  0.52313331  0.31526165     0.03210
C1107       C  0.04918872  0.55014669  0.32960801    -0.12940
C1108       C  0.07303632  0.55168371  0.35031153     0.00710
C1109       C  0.08666633  0.52437701  0.36014796    -0.11470
C1110       C  0.07882782  0.99695610  0.34594436     0.03200
C1111       C  0.06019870  0.99822418  0.32061086    -0.10890
H1112       H  0.03586513  0.57008525  0.32512875     0.08800
H1113       H  0.10339080  0.52455551  0.37780544     0.06320
H1114       H  0.05702628  0.97841449  0.30690169     0.06170
C1115       C  0.41929155  0.52363633  0.31643826     0.03210
C1116       C  0.41303710  0.55006739  0.33207249    -0.12940
C1117       C  0.38977011  0.55141142  0.35371532     0.00710
C1118       C  0.37636026  0.52381387  0.36364408    -0.11470
C1119       C  0.38408120  0.99649468  0.34878026     0.03200
C1120       C  0.40168077  0.99843839  0.32251810    -0.10890
H1121       H  0.42674287  0.56979933  0.32777609     0.08800
H1122       H  0.36021156  0.52366784  0.38198575     0.06320
H1123       H  0.40494799  0.97880836  0.30853572     0.06170
C1124       C  0.04456081  0.52210412  0.18250461     0.03210
C1125       C  0.06139063  0.54786889  0.17735615    -0.12940
C1126       C  0.08148815  0.54948461  0.15301716     0.00710
C1127       C  0.09124400  0.52202265  0.13969770    -0.11470
C1128       C  0.07818953  0.99423647  0.14953288     0.03200
C1129       C  0.05363185  0.99516633  0.16964684    -0.10890
H1130       H  0.05418989  0.56811233  0.18887792     0.08800
H1131       H  0.10864640  0.52222660  0.12253069     0.06320
H1132       H  0.04041196  0.97509504  0.17419369     0.06170
C1133       C  0.23382482  0.71082524  0.06540114     0.03210
C1134       C  0.26087930  0.70416215  0.08000256    -0.12940
C1135       C  0.26263934  0.68093487  0.10157151     0.00710
C1136       C  0.23533241  0.66782998  0.11242670    -0.11470
C1137       C  0.20772492  0.67543299  0.09817790     0.03200
C1138       C  0.20896205  0.69285437  0.07176927    -0.10890
H1139       H  0.28082030  0.71731566  0.07494477     0.08800
H1140       H  0.23564220  0.65173514  0.13083617     0.06320
H1141       H  0.18921301  0.69512292  0.05775353     0.06170
O1142       O  0.39593207  0.69130594  0.15016488    -0.85270
O1143       O  0.36380179  0.65101211  0.18709754    -0.82310
C1144       C  0.34442033  0.63098020  0.19281636     0.98190
O1145       O  0.33151968  0.61749606  0.17128969    -0.82350
O1146       O  0.29815533  0.65184836  0.13065929    -0.84990
C1147       C  0.29344939  0.67004483  0.10932579     1.02720
O1148       O  0.31500107  0.67772931  0.09205664    -0.77760
O1149       O  0.35914521  0.70977773  0.12286851    -0.77940
C1150       C  0.38101962  0.71377468  0.14043180     1.02670
O1151       O  0.42216941  0.64169353  0.11938022    -0.85270
O1152       O  0.38922449  0.60192120  0.15594925    -0.82330
C1153       C  0.37622613  0.57986845  0.14336625     0.98210
O1154       O  0.35683037  0.58464472  0.12328019    -0.82360
O1155       O  0.32361693  0.61819440  0.08188054    -0.84960
C1156       C  0.33957184  0.62605316  0.05934888     1.02680
O1157       O  0.36111377  0.64423577  0.06258620    -0.77780
O1158       O  0.40470900  0.67831669  0.09139857    -0.77930
C1159       C  0.42668387  0.66254267  0.10049599     1.02650
Cr1160     Cr  0.39012677  0.64659742  0.15066391     1.93740
Cr1161     Cr  0.33012099  0.62056992  0.12653420     1.93210
Cr1162     Cr  0.35992320  0.67501525  0.09477609     1.39100
O1163       O  0.36002840  0.64741046  0.12414334    -1.23020
C1164       C  0.23134206  0.71078483  0.43374703     0.03210
C1165       C  0.25839653  0.70464833  0.41886494    -0.12940
C1166       C  0.26083293  0.68077972  0.39839439     0.00710
C1167       C  0.23384441  0.66636449  0.38867774    -0.11470
C1168       C  0.20602132  0.67363957  0.40299869     0.03200
C1169       C  0.20689552  0.69209789  0.42850216    -0.10890
H1170       H  0.27784682  0.71870306  0.42300872     0.08800
H1171       H  0.23455778  0.64967140  0.37103646     0.06320
H1172       H  0.18708021  0.69471830  0.44253979     0.06170
C1173       C  0.30122038  0.58917023  0.25149501     0.03210
C1174       C  0.31765602  0.59536449  0.22568067    -0.12940
C1175       C  0.33671517  0.62055566  0.22413769     0.00710
C1176       C  0.34600657  0.63394309  0.25175739    -0.11470
C1177       C  0.33330209  0.62331938  0.27954605     0.03200
C1178       C  0.30982414  0.60205258  0.27840866    -0.10890
H1179       H  0.31054192  0.58394598  0.20541504     0.08800
H1180       H  0.36244662  0.65195941  0.25164374     0.06320
H1181       H  0.29650419  0.59688685  0.29831496     0.06170
O1182       O  0.35862756  0.64967222  0.44043377    -0.85270
O1183       O  0.40332160  0.68174544  0.40986369    -0.82310
C1184       C  0.42538265  0.66578719  0.40107765     0.98190
O1185       O  0.42130180  0.64508546  0.38222104    -0.82350
O1186       O  0.39000073  0.60424107  0.34707795    -0.84990
C1187       C  0.37965851  0.58236436  0.36245552     1.02720
O1188       O  0.35978136  0.58716730  0.38230361    -0.77760
O1189       O  0.32340986  0.62127185  0.42122249    -0.77940
C1190       C  0.33718612  0.63138279  0.44396145     1.02670
O1191       O  0.31337091  0.68061834  0.40722560    -0.85270
O1192       O  0.35805609  0.71233108  0.37629769    -0.82330
C1193       C  0.38014522  0.71606597  0.35876388     0.98210
O1194       O  0.39523004  0.69350968  0.34997982    -0.82360
O1195       O  0.36208487  0.65265930  0.31541660    -0.84960
C1196       C  0.34301340  0.63218503  0.31047319     1.02680
O1197       O  0.33254528  0.61678013  0.33229888    -0.77780
O1198       O  0.29749583  0.65115189  0.37118500    -0.77930
C1199       C  0.29211514  0.67070824  0.39096620     1.02650
Cr1200     Cr  0.35842636  0.67849723  0.40595126     1.93740
Cr1201     Cr  0.38946573  0.64898773  0.35105042     1.93210
Cr1202     Cr  0.33092368  0.62158279  0.37689118     1.39100
O1203       O  0.35956485  0.64975524  0.37797358    -1.23020
C1204       C  0.42222060  0.77059528  0.18601674     0.03210
C1205       C  0.41640052  0.74548606  0.16845072    -0.12940
C1206       C  0.39092910  0.74437238  0.14994679     0.00710
C1207       C  0.37611315  0.77179763  0.14258744    -0.11470
C1208       C  0.38554769  0.79899302  0.15642513     0.03200
C1209       C  0.40720297  0.79740343  0.17940755    -0.10890
H1210       H  0.42940381  0.72529127  0.17285678     0.08800
H1211       H  0.35797834  0.77201398  0.12637705     0.06320
H1212       H  0.41153224  0.81702180  0.19308029     0.06170
C1213       C  0.23413802  0.83309612  0.06411267     0.03210
C1214       C  0.20862977  0.85030488  0.07016738    -0.12940
C1215       C  0.20709361  0.86875955  0.09560326     0.00710
C1216       C  0.23444360  0.87721359  0.10965119    -0.11470
C1217       C  0.26196183  0.86412958  0.09974604     0.03200
C1218       C  0.26081070  0.84037654  0.07901155    -0.10890
H1219       H  0.18871752  0.84670795  0.05669052     0.08800
H1220       H  0.23438630  0.89389925  0.12731238     0.06320
H1221       H  0.28090338  0.82718396  0.07510278     0.06170
O1222       O  0.35575668  0.83393998  0.12719585    -0.85270
O1223       O  0.31468357  0.86616959  0.09258147    -0.82310
C1224       C  0.29244632  0.87530237  0.10805738     0.98190
O1225       O  0.29626531  0.89487602  0.12812401    -0.82350
O1226       O  0.32729043  0.92973309  0.16935719    -0.84990
C1227       C  0.33598134  0.91418791  0.19166654     1.02720
O1228       O  0.35497235  0.89341217  0.18795581    -0.77760
O1229       O  0.39026604  0.85186908  0.15723194    -0.77940
C1230       C  0.37577928  0.82970434  0.14683779     1.02670
O1231       O  0.40400159  0.86394821  0.09785020    -0.85270
O1232       O  0.36294718  0.89713272  0.06321404    -0.82330
C1233       C  0.34232461  0.91611706  0.05831855     0.98210
O1234       O  0.32633435  0.92551054  0.08005474    -0.82360
O1235       O  0.35915524  0.95872232  0.12195168    -0.85040
C1236       C  0.37760192  0.96313735  0.14303006     1.02680
O1237       O  0.38678167  0.94117118  0.15892296    -0.77780
O1238       O  0.42139971  0.89902619  0.12752259    -0.77930
C1239       C  0.42609103  0.87823999  0.10883453     1.02650
Cr1240     Cr  0.35931071  0.86792739  0.09769815     1.93740
Cr1241     Cr  0.32983973  0.92465394  0.12487978     1.93210
Cr1242     Cr  0.38582017  0.89644857  0.15526104     1.39100
O1243       O  0.35848289  0.89641807  0.12583470    -1.23020
C1244       C  0.29431050  0.95920332  0.25000109     0.03210
C1245       C  0.30171508  0.94454557  0.22322432    -0.12940
C1246       C  0.32520035  0.92330098  0.22204218     0.00710
C1247       C  0.33849670  0.91352037  0.24942131    -0.11470
C1248       C  0.33034215  0.92781068  0.27672041     0.03200
C1249       C  0.31163264  0.95319647  0.27539112    -0.10890
H1250       H  0.28851033  0.94882748  0.20323779     0.08800
H1251       H  0.35503608  0.89559876  0.24942610     0.06320
H1252       H  0.30736408  0.96621521  0.29550019     0.06170
C1253       C  0.41974934  0.77181934  0.30967930     0.03210
C1254       C  0.41472944  0.74713352  0.32837034    -0.12940
C1255       C  0.38989363  0.74639051  0.34791064     0.00710
C1256       C  0.37556123  0.77396267  0.35513671    -0.11470
C1257       C  0.38502594  0.80098498  0.34054819     0.03200
C1258       C  0.40571474  0.79909074  0.31657362    -0.10890
H1259       H  0.42780323  0.72694042  0.32429974     0.08800
H1260       H  0.35802427  0.77448366  0.37215805     0.06320
H1261       H  0.41015651  0.81874935  0.30268168     0.06170
C1262       C  0.23156427  0.83301130  0.43259924     0.03210
C1263       C  0.20641171  0.85079031  0.42695104    -0.12940
C1264       C  0.20530289  0.87017323  0.40192896     0.00710
C1265       C  0.23289527  0.87821475  0.38759178    -0.11470
C1266       C  0.26011357  0.86402061  0.39691503     0.03200
C1267       C  0.25832858  0.83982416  0.41738155    -0.10890
H1268       H  0.18642081  0.84693942  0.44048875     0.08800
H1269       H  0.23327274  0.89546235  0.37025432     0.06320
H1270       H  0.27803838  0.82598122  0.42100870     0.06170
O1271       O  0.32367970  0.92296206  0.41918961    -0.85270
O1272       O  0.35666306  0.95958457  0.37901771    -0.82310
C1273       C  0.37545323  0.96515163  0.35830374     0.98190
O1274       O  0.38693146  0.94355225  0.34350036    -0.82350
O1275       O  0.42041372  0.90048000  0.37527866    -0.84990
C1276       C  0.42469918  0.87841843  0.39274646     1.02720
O1277       O  0.40243470  0.86273215  0.40169688    -0.77760
O1278       O  0.35980684  0.89402447  0.43632300    -0.77940
C1279       C  0.33852814  0.91223159  0.44123220     1.02670
O1280       O  0.29572068  0.89454110  0.36901833    -0.85270
O1281       O  0.32860399  0.93123803  0.32979802    -0.82330
C1282       C  0.33962995  0.91757202  0.30729949     0.98210
O1283       O  0.35843047  0.89670404  0.31124363    -0.82360
O1284       O  0.39193875  0.85381987  0.34226525    -0.84960
C1285       C  0.37607268  0.83152671  0.35076889     1.02680
O1286       O  0.35491697  0.83520582  0.36939549    -0.77780
O1287       O  0.31277566  0.86490600  0.40455942    -0.77930
C1288       C  0.29102719  0.87467158  0.38886551     1.02650
Cr1289     Cr  0.32875350  0.92454624  0.37431559     1.93740
Cr1290     Cr  0.38687466  0.89856002  0.34563892     1.93210
Cr1291     Cr  0.35760691  0.86690322  0.40061041     1.39100
O1292       O  0.35790896  0.89686168  0.37366325    -1.23020
C1293       C  0.17088181  0.95554183  0.24955846     0.03210
C1294       C  0.15237952  0.95071279  0.27433303    -0.12940
C1295       C  0.13364608  0.92532954  0.27605250     0.00710
C1296       C  0.12568291  0.91093893  0.24862596    -0.11470
C1297       C  0.13969262  0.92053230  0.22116452     0.03200
C1298       C  0.16399735  0.94085460  0.22278405    -0.10890
H1299       H  0.15578211  0.96476155  0.29386479     0.08800
H1300       H  0.10874245  0.89339413  0.24855623     0.06320
H1301       H  0.17783909  0.94501593  0.20305006     0.06170
C1302       C  0.04829159  0.77507376  0.31269444     0.03210
C1303       C  0.06347761  0.74834420  0.31929250    -0.12940
C1304       C  0.08450006  0.74655361  0.34285043     0.00710
C1305       C  0.09382204  0.77380481  0.35689361    -0.11470
C1306       C  0.07922588  0.80137391  0.34922591     0.03200
C1307       C  0.05402684  0.80017564  0.33030711    -0.10890
H1308       H  0.05942603  0.72873633  0.30553311     0.08800
H1309       H  0.11147498  0.77348380  0.37362378     0.06320
H1310       H  0.04065976  0.82018200  0.32624088     0.06170
O1311       O  0.10551004  0.89540369  0.31269114    -0.85270
O1312       O  0.07337273  0.85441574  0.34897170    -0.82310
C1313       C  0.08852035  0.83225666  0.35903623     0.98190
O1314       O  0.10995367  0.83688696  0.37701820    -0.82350
O1315       O  0.15243684  0.87118488  0.40845884    -0.84990
C1316       C  0.17457888  0.88054398  0.39283715     1.02720
O1317       O  0.17005955  0.89836883  0.37111924    -0.77760
O1318       O  0.13589130  0.93055057  0.32893434    -0.77940
C1319       C  0.12442145  0.91599640  0.30727469     1.02670
O1320       O  0.07724645  0.94388187  0.34239199    -0.85270
O1321       O  0.04512270  0.90353353  0.37890416    -0.82330
C1322       C  0.04087538  0.88307511  0.39829382     0.98210
O1323       O  0.06296128  0.86754479  0.40753689    -0.82360
O1324       O  0.10500748  0.90261238  0.43727547    -0.84960
C1325       C  0.12589807  0.92147464  0.44081485     1.02680
O1326       O  0.14138539  0.93043850  0.41841315    -0.77780
O1327       O  0.10752724  0.96220943  0.37641343    -0.77930
C1328       C  0.08841462  0.96630882  0.35594031     1.02650
Cr1329     Cr  0.07792987  0.89926314  0.34824965     1.93740
Cr1330     Cr  0.10766224  0.87202527  0.40491251     1.93210
Cr1331     Cr  0.13613087  0.92777697  0.37380308     1.39100
O1332       O  0.10738314  0.89958003  0.37547465    -1.23020
C1333       C  0.17425687  0.58830140  0.25085750     0.03210
C1334       C  0.16405162  0.60000723  0.27794296    -0.12940
C1335       C  0.13947552  0.61991593  0.27872693     0.00710
C1336       C  0.12666124  0.62974763  0.25107216    -0.11470
C1337       C  0.13701614  0.61714947  0.22358860     0.03200
C1338       C  0.15813358  0.59377153  0.22474762    -0.10890
H1339       H  0.17684872  0.59536461  0.29818296     0.08800
H1340       H  0.10898057  0.64654848  0.25096395     0.06320
H1341       H  0.16658060  0.58370564  0.20418091     0.06170
O1342       O  0.13781055  0.61756771  0.42032358    -0.85270
O1343       O  0.10291496  0.58617692  0.37928824    -0.82310
C1344       C  0.08413975  0.58221540  0.35846639     0.98190
O1345       O  0.07603818  0.60423848  0.34210492    -0.82350
O1346       O  0.04476903  0.64807209  0.37428851    -0.84990
C1347       C  0.04112095  0.66929413  0.39268152     1.02720
O1348       O  0.06381589  0.68342875  0.40261709    -0.77760
O1349       O  0.10354907  0.64865442  0.43724641    -0.77940
C1350       C  0.12327108  0.62875153  0.44215565     1.02670
O1351       O  0.17048490  0.64510838  0.37283026    -0.85270
O1352       O  0.13628221  0.61282652  0.33123415    -0.82330
C1353       C  0.12813835  0.62871869  0.30891696     0.98210
O1354       O  0.10987260  0.65016515  0.31249292    -0.82360
O1355       O  0.07724792  0.69383883  0.34333099    -0.84960
C1356       C  0.09305233  0.71550026  0.35297159     1.02680
O1357       O  0.11330158  0.71053204  0.37223927    -0.77780
O1358       O  0.15297679  0.67591997  0.40698010    -0.77930
C1359       C  0.17515702  0.66423345  0.39318911     1.02650
Cr1360     Cr  0.13434863  0.61812091  0.37573930     1.93740
Cr1361     Cr  0.07954486  0.64897084  0.34564466     1.93210
Cr1362     Cr  0.10833017  0.67700722  0.40223422     1.39100
O1363       O  0.10745126  0.64808056  0.37453791    -1.23020
C1364       C  0.04931014  0.77417128  0.18991675     0.03210
C1365       C  0.06384305  0.74702174  0.18354698    -0.12940
C1366       C  0.08474203  0.74496087  0.15976671     0.00710
C1367       C  0.09443776  0.77196383  0.14519846    -0.11470
C1368       C  0.07991170  0.79956113  0.15214768     0.03200
C1369       C  0.05454040  0.79867913  0.17105150    -0.10890
H1370       H  0.05937178  0.72742379  0.19750295     0.08800
H1371       H  0.11221601  0.77140051  0.12843595     0.06320
H1372       H  0.04082175  0.81859996  0.17415597     0.06170
O1373       O  0.06434265  0.86561027  0.09273892    -0.85270
O1374       O  0.10736877  0.89816748  0.06062354    -0.82310
C1375       C  0.12860087  0.91658459  0.05660520     0.98190
O1376       O  0.14272036  0.92692658  0.07903266    -0.82350
O1377       O  0.10831574  0.95946896  0.12043494    -0.84990
C1378       C  0.08924489  0.96368926  0.14111086     1.02720
O1379       O  0.08005477  0.94159152  0.15684508    -0.77760
O1380       O  0.04721301  0.90159981  0.12177223    -0.77940
C1381       C  0.04258882  0.88151745  0.10234274     1.02670
O1382       O  0.11119209  0.83432205  0.12356500    -0.85270
O1383       O  0.15408607  0.86747756  0.09097170    -0.82330
C1384       C  0.17628188  0.87805275  0.10541912     0.98210
O1385       O  0.17186033  0.89651470  0.12642310    -0.82360
O1386       O  0.13859395  0.92897366  0.16853881    -0.84960
C1387       C  0.12908914  0.91273502  0.19024469     1.02680
O1388       O  0.10973598  0.89246360  0.18546911    -0.77780
O1389       O  0.07499115  0.85249053  0.15156905    -0.77930
C1390       C  0.08969108  0.83011773  0.14174239     1.02650
Cr1391     Cr  0.10927083  0.86889317  0.09463983     1.93740
Cr1392     Cr  0.13772976  0.92550208  0.12361650     1.93210
Cr1393     Cr  0.08059633  0.89700965  0.15143514     1.39100
O1394       O  0.10929180  0.89706293  0.12321821    -1.23020
O1395       O  0.04688511  0.64579142  0.12586489    -0.85270
O1396       O  0.07966808  0.60247318  0.15819073    -0.82310
C1397       C  0.09033591  0.58057167  0.14329855     0.98190
O1398       O  0.10854105  0.58559927  0.12203481    -0.82350
O1399       O  0.14135803  0.62067025  0.08102358    -0.84990
C1400       C  0.12706762  0.63249683  0.05918652     1.02720
O1401       O  0.10624299  0.65111852  0.06435449    -0.77760
O1402       O  0.06517041  0.68352002  0.09963513    -0.77940
C1403       C  0.04276142  0.66794301  0.10846664     1.02670
O1404       O  0.07674860  0.69227880  0.15820732    -0.85270
O1405       O  0.10952419  0.64881228  0.18922727    -0.82330
C1406       C  0.12784877  0.62749447  0.19304289     0.98210
O1407       O  0.13839438  0.61347763  0.17049190    -0.82360
O1408       O  0.17219159  0.64794509  0.12956162    -0.84960
C1409       C  0.17685830  0.66677748  0.10873228     1.02680
O1410       O  0.15466990  0.67825687  0.09488706    -0.77780
O1411       O  0.11420652  0.70984467  0.13102045    -0.77930
C1412       C  0.09317126  0.71417066  0.14965329     1.02650
Cr1413     Cr  0.08068526  0.64737587  0.15527536     1.93740
Cr1414     Cr  0.13756997  0.61953353  0.12585842     1.93210
Cr1415     Cr  0.10994681  0.67808330  0.09994443     1.39100
O1416       O  0.10936113  0.64819987  0.12695217    -1.23020
C1417       C  0.04154131  0.80567026  0.26682572    -0.21230
C1418       C  0.03392543  0.77941139  0.28287900    -0.09270
C1419       C  0.02063915  0.75541878  0.26716621     0.29590
C1420       C  0.02143283  0.75536135  0.23567094    -0.21230
C1421       C  0.03546218  0.77917327  0.21991537    -0.09280
C1422       C  0.04293618  0.80555036  0.23583236     0.29600
F1423       F  0.05684660  0.82948196  0.22258295    -0.19800
H1424       H  0.05140393  0.82500252  0.27778670     0.17960
H1425       H  0.01388962  0.73546920  0.22386170     0.17970
F1426       F  0.00975292  0.73093045  0.28208486    -0.19790
C1427       C  0.24811272  0.96477022  0.28041293    -0.21230
C1428       C  0.26393643  0.97266469  0.25407961    -0.09270
C1429       C  0.24771066  0.98527499  0.22990926     0.29590
C1430       C  0.21620340  0.98360370  0.22987932    -0.21230
C1431       C  0.20090667  0.96948448  0.25394736    -0.09280
C1432       C  0.21716049  0.96252771  0.28032942     0.29600
F1433       F  0.20439363  0.94845857  0.30445157    -0.19800
H1434       H  0.25932731  0.95538356  0.29991356     0.17960
H1435       H  0.20409401  0.99069717  0.20993047     0.17970
F1436       F  0.26221247  0.99650708  0.20532248    -0.19790
C1437       C  0.44783947  0.78965982  0.26366696    -0.21230
C1438       C  0.43230805  0.76670684  0.27925499    -0.09270
C1439       C  0.42276455  0.74108538  0.26326755     0.29590
C1440       C  0.42499116  0.74054677  0.23237352    -0.21230
C1441       C  0.43514875  0.76592711  0.21633641    -0.09280
C1442       C  0.44927276  0.78933183  0.23218520     0.29600
F1443       F  0.46174766  0.81307015  0.21729537    -0.19800
H1444       H  0.45637846  0.80907821  0.27558273     0.17960
H1445       H  0.41397071  0.72194151  0.22123664     0.17970
F1446       F  0.40640649  0.71864319  0.27637115    -0.19790
C1447       C  0.25351937  0.60276500  0.22919273    -0.21230
C1448       C  0.26927651  0.58239967  0.24740112    -0.09270
C1449       C  0.25350494  0.56102908  0.26482711     0.29590
C1450       C  0.22191801  0.56112178  0.26468572    -0.21230
C1451       C  0.20650563  0.58273204  0.24738459    -0.09280
C1452       C  0.22268715  0.60336337  0.22947647     0.29600
F1453       F  0.20883847  0.62634884  0.21462166    -0.19800
H1454       H  0.26515824  0.62029243  0.21656715     0.17960
H1455       H  0.20957781  0.54549043  0.27897956     0.17970
F1456       F  0.26852914  0.54133335  0.28277081    -0.19790
C1457       C  0.25126185  0.75593262  0.46077991    -0.21230
C1458       C  0.22666991  0.74040942  0.44835932    -0.09270
C1459       C  0.20004377  0.75670184  0.44227804     0.29590
C1460       C  0.20052447  0.78776227  0.44247448    -0.21230
C1461       C  0.22748634  0.80338570  0.44779384    -0.09280
C1462       C  0.25187812  0.78739470  0.46020628     0.29600
F1463       F  0.27739508  0.80181775  0.46866040    -0.19800
H1464       H  0.27136656  0.74389738  0.46761039     0.17960
H1465       H  0.18077751  0.79886204  0.43349880     0.17970
F1466       F  0.17502001  0.74368096  0.43066086    -0.19790
C1467       C  0.25463192  0.75578410  0.03772972    -0.21230
C1468       C  0.22965321  0.74036136  0.04996105    -0.09270
C1469       C  0.20282686  0.75678825  0.05487127     0.29590
C1470       C  0.20335020  0.78782834  0.05390309    -0.21230
C1471       C  0.23052158  0.80343040  0.04912790    -0.09280
C1472       C  0.25527919  0.78726637  0.03761768     0.29600
F1473       F  0.28101446  0.80153867  0.02914052    -0.19800
H1474       H  0.27489753  0.74369899  0.03143550     0.17960
H1475       H  0.18318604  0.79891392  0.06196922     0.17970
F1476       F  0.17727211  0.74407058  0.06604257    -0.19790
C1477       C  0.49646672  0.54335134  0.28836807    -0.21230
C1478       C  0.01193051  0.51884730  0.30136653    -0.09270
C1479       C  0.49552188  0.49232037  0.30796783     0.29590
C1480       C  0.46448595  0.49269052  0.30723771    -0.21230
C1481       C  0.44884750  0.51950574  0.30113505    -0.09280
C1482       C  0.46492143  0.54377643  0.28829658     0.29600
F1483       F  0.45039765  0.56887603  0.27853321    -0.19800
H1484       H  0.00857137  0.56337426  0.28121156     0.17960
H1485       H  0.45330580  0.97300724  0.31648539     0.17970
F1486       F  0.00832503  0.96748836  0.32049723    -0.19790
C1487       C  0.46543094  0.54787524  0.17632896    -0.21230
C1488       C  0.45006675  0.52707773  0.19462219    -0.09270
C1489       C  0.46647928  0.50725963  0.21314644     0.29590
C1490       C  0.49802175  0.50691052  0.21131663    -0.21230
C1491       C  0.01286278  0.52616262  0.19084863    -0.09280
C1492       C  0.49618436  0.54704992  0.17384419     0.29600
F1493       F  0.00910391  0.56420872  0.15183273    -0.19800
H1494       H  0.45352762  0.56269366  0.16095170     0.17960
H1495       H  0.01066183  0.49059317  0.22438844     0.17970
F1496       F  0.45202267  0.48720118  0.23130614    -0.19790
C1497       C  0.46640514  0.73819107  0.48567698    -0.21230
C1498       C  0.49051141  0.72470579  0.47005988    -0.09270
C1499       C  0.01715763  0.71811948  0.48608976     0.29590
C1500       C  0.01715944  0.71925387  0.01709857    -0.21230
C1501       C  0.49052053  0.72558888  0.03298984    -0.09280
C1502       C  0.46634535  0.73864378  0.01717179     0.29600
F1503       F  0.44154005  0.74875186  0.03196411    -0.19800
H1504       H  0.44635545  0.74536510  0.47379808     0.17960
H1505       H  0.03678494  0.70992640  0.02811848     0.17970
F1506       F  0.04159680  0.70514034  0.47303035    -0.19790
C1507       C  0.00205718  0.81053890  0.01655701    -0.21230
C1508       C  0.47790590  0.82391827  0.03219242    -0.09270
C1509       C  0.45130951  0.83063776  0.01617078     0.29590
C1510       C  0.45130227  0.82952719  0.48517799    -0.21230
C1511       C  0.47782306  0.82286894  0.46920692    -0.09280
C1512       C  0.00208185  0.80998388  0.48505373     0.29600
F1513       F  0.02680451  0.79965230  0.47028187    -0.19800
H1514       H  0.02210600  0.80336647  0.02844263     0.17960
H1515       H  0.43167139  0.83890629  0.47421571     0.17970
F1516       F  0.42689123  0.84362200  0.02927075    -0.19790
C1517       C  0.29451460  0.50522580  0.46952168    -0.21230
C1518       C  0.28587072  0.98916482  0.99527238    -0.09270
C1519       C  0.27163792  0.50463248  0.01898069     0.29590
C1520       C  0.27144639  0.53617884  0.01897001    -0.21230
C1521       C  0.28550904  0.55232184  0.99541409    -0.09280
C1522       C  0.29502664  0.53622448  0.46959659     0.29600
F1523       F  0.30960463  0.54971433  0.44617777    -0.19800
H1524       H  0.30548909  0.99441421  0.45061822     0.17960
H1525       H  0.26275242  0.54783674  0.03852069     0.17970
F1526       F  0.26030032  0.98947342  0.04312513    -0.19790
C1527       C  0.16221636  0.54199748  0.02785844    -0.21230
C1528       C  0.17870790  0.55812048  0.50617520    -0.09270
C1529       C  0.19705994  0.54253969  0.48561631     0.29590
C1530       C  0.19624902  0.51100480  0.48504666    -0.21230
C1531       C  0.17697280  0.99530378  0.00483218    -0.09280
C1532       C  0.16064656  0.51118876  0.02683579     0.29600
F1533       F  0.13968839  0.99754472  0.04472066    -0.19800
H1534       H  0.14714143  0.55328323  0.04342610     0.17960
H1535       H  0.20891531  0.99902685  0.46797453     0.17970
F1536       F  0.21382295  0.55777882  0.46492632    -0.19790
C1537       C  0.16853864  0.96380407  0.49981000     0.03210
C1538       C  0.16348702  0.94594595  0.52502316    -0.12940
C1539       C  0.13885871  0.92625795  0.52605515     0.00710
C1540       C  0.12516751  0.91792667  0.99852260    -0.11470
C1541       C  0.13491109  0.93181563  0.97119455     0.03200
C1542       C  0.15543432  0.95586837  0.97260638    -0.10890
H1543       H  0.17520488  0.95204155  0.54547523     0.08800
H1544       H  0.10769099  0.90090741  0.99832366     0.06320
H1545       H  0.15997597  0.96956648  0.95280990     0.06170
C1546       C  0.29717730  0.58306817  0.50011669     0.03210
C1547       C  0.31050972  0.59091375  0.52744851    -0.12940
C1548       C  0.33073016  0.61522926  0.52903633     0.00710
C1549       C  0.34049687  0.62922341  0.50183777    -0.11470
C1550       C  0.32669150  0.62136579  0.97431122     0.03200
C1551       C  0.30199651  0.60174656  0.97519770    -0.10890
H1552       H  0.30612746  0.57741331  0.54738204     0.08800
H1553       H  0.35788870  0.64632481  0.50216641     0.06320
H1554       H  0.28913655  0.59749636  0.95499920     0.06170
C1555       C  0.48268112  0.83800138  0.56200900     0.03210
C1556       C  0.00967215  0.85278868  0.56831903    -0.12940
C1557       C  0.01166700  0.87342915  0.59213413     0.00710
C1558       C  0.48452239  0.88305070  0.60641129    -0.11470
C1559       C  0.45694881  0.86854377  0.59919968     0.03200
C1560       C  0.45812782  0.84305381  0.58074595    -0.10890
H1561       H  0.02927549  0.84853799  0.55438257     0.08800
H1562       H  0.48494376  0.90076468  0.62303418     0.06320
H1563       H  0.43838821  0.82903504  0.57791960     0.06170
C1564       C  0.48554585  0.71024105  0.94043410     0.03210
C1565       C  0.45833015  0.69560709  0.93439043    -0.12940
C1566       C  0.45616904  0.67445978  0.91106637     0.00710
C1567       C  0.48309586  0.66474454  0.89658692    -0.11470
C1568       C  0.01073334  0.67929437  0.90316073     0.03200
C1569       C  0.01004025  0.70473360  0.92166401    -0.10890
H1570       H  0.43873764  0.70020828  0.94822542     0.08800
H1571       H  0.48244957  0.64685991  0.88014985     0.06320
H1572       H  0.03000574  0.71847279  0.92423738     0.06170
C1573       C  0.29894806  0.95851898  0.49920189     0.03210
C1574       C  0.31347638  0.95082085  0.52592181    -0.12940
C1575       C  0.33391983  0.92662363  0.52736542     0.00710
C1576       C  0.34326865  0.91293542  0.49984659    -0.11470
C1577       C  0.32921431  0.92172164  0.97231247     0.03200
C1578       C  0.30459744  0.94146760  0.97376191    -0.10890
H1579       H  0.30950523  0.96434227  0.54574676     0.08800
H1580       H  0.36059843  0.89578127  0.49991624     0.06320
H1581       H  0.29168653  0.94656470  0.95373787     0.06170
C1582       C  0.16913356  0.58941308  0.00129546     0.03210
C1583       C  0.16315542  0.60648899  0.52657773    -0.12940
C1584       C  0.13725404  0.62452552  0.52806873     0.00710
C1585       C  0.12272758  0.63258468  0.50059142    -0.11470
C1586       C  0.13282244  0.61943402  0.97308151     0.03200
C1587       C  0.15481000  0.59661585  0.97450084    -0.10890
H1588       H  0.17560167  0.60078052  0.54676953     0.08800
H1589       H  0.10423224  0.64847764  0.50061075     0.06320
H1590       H  0.15974659  0.58301419  0.95491087     0.06170
C1591       C  0.48188963  0.83769919  0.93937308     0.03210
C1592       C  0.00867448  0.85279691  0.93239747    -0.12940
C1593       C  0.01015682  0.87412579  0.90886558     0.00710
C1594       C  0.48283036  0.88368302  0.89515150    -0.11470
C1595       C  0.45536492  0.86909109  0.90299595     0.03200
C1596       C  0.45658122  0.84376404  0.92197738    -0.10890
H1597       H  0.02852479  0.84853170  0.94580975     0.08800
H1598       H  0.48302830  0.90148342  0.87837633     0.06320
H1599       H  0.43652792  0.83041923  0.92602170     0.06170
C1600       C  0.48605349  0.70978370  0.56226451     0.03210
C1601       C  0.01107503  0.70339200  0.57995892    -0.12940
C1602       C  0.01216126  0.67747942  0.59815375     0.00710
C1603       C  0.48469781  0.66231081  0.60487920    -0.11470
C1604       C  0.45757153  0.67193552  0.59078963     0.03200
C1605       C  0.45933006  0.69410704  0.56808265    -0.10890
H1606       H  0.03109000  0.71699858  0.57668482     0.08800
H1607       H  0.48434681  0.64395551  0.62104239     0.06320
H1608       H  0.43972903  0.69863317  0.55438463     0.06170
C1609       C  0.41825957  0.52230087  0.68713264     0.03210
C1610       C  0.41030060  0.99516203  0.67397990    -0.12940
C1611       C  0.38753355  0.99380986  0.65209287     0.00710
C1612       C  0.37506807  0.52133548  0.64109330    -0.11470
C1613       C  0.38355246  0.54896136  0.65474969     0.03200
C1614       C  0.40134228  0.54776769  0.68072910    -0.10890
H1615       H  0.42348299  0.97530014  0.67933944     0.08800
H1616       H  0.35935496  0.52125263  0.62252918     0.06320
H1617       H  0.40743213  0.56826208  0.69238289     0.06170
C1618       C  0.04201347  0.52313568  0.81526238     0.03210
C1619       C  0.04918605  0.55014869  0.82960866    -0.12940
C1620       C  0.07303370  0.55168527  0.85031190     0.00710
C1621       C  0.08666411  0.52437843  0.86014739    -0.11470
C1622       C  0.07882484  0.99695756  0.84594398     0.03200
C1623       C  0.06019369  0.99822558  0.82061181    -0.10890
H1624       H  0.03586270  0.57008752  0.82512985     0.08800
H1625       H  0.10338936  0.52455679  0.87780415     0.06320
H1626       H  0.05701924  0.97841561  0.80690352     0.06170
C1627       C  0.41928791  0.52365327  0.81644479     0.03210
C1628       C  0.41303681  0.55008356  0.83208194    -0.12940
C1629       C  0.38976782  0.55142899  0.85372292     0.00710
C1630       C  0.37635336  0.52383224  0.86364741    -0.11470
C1631       C  0.38407190  0.99651368  0.84878094     0.03200
C1632       C  0.40167281  0.99845758  0.82252005    -0.10890
H1633       H  0.42674593  0.56981388  0.82778843     0.08800
H1634       H  0.36020319  0.52368636  0.88198784     0.06320
H1635       H  0.40493861  0.97882826  0.80853628     0.06170
C1636       C  0.04456489  0.52209969  0.68250787     0.03210
C1637       C  0.06139253  0.54786547  0.67735748    -0.12940
C1638       C  0.08148977  0.54948148  0.65301837     0.00710
C1639       C  0.09124610  0.52201987  0.63969854    -0.11470
C1640       C  0.07819286  0.99423325  0.64953386     0.03200
C1641       C  0.05363631  0.99516227  0.66964937    -0.10890
H1642       H  0.05419162  0.56810878  0.68887938     0.08800
H1643       H  0.10864802  0.52222444  0.62253105     0.06320
H1644       H  0.04041777  0.97509038  0.67419741     0.06170
C1645       C  0.23382884  0.71081224  0.56539261     0.03210
C1646       C  0.26088660  0.70413311  0.57998193    -0.12940
C1647       C  0.26264393  0.68089958  0.60154516     0.00710
C1648       C  0.23533478  0.66780373  0.61240582    -0.11470
C1649       C  0.20772607  0.67541989  0.59816649     0.03200
C1650       C  0.20896246  0.69284664  0.57176165    -0.10890
H1651       H  0.28083129  0.71727988  0.57492137     0.08800
H1652       H  0.23564356  0.65170531  0.63081224     0.06320
H1653       H  0.18921108  0.69512364  0.55775061     0.06170
O1654       O  0.39592750  0.69127080  0.65015051    -0.85270
O1655       O  0.36380258  0.65098153  0.68708536    -0.82310
C1656       C  0.34441709  0.63095467  0.69280701     0.98190
O1657       O  0.33151442  0.61746864  0.67128195    -0.82350
O1658       O  0.29815455  0.65180479  0.63063180    -0.84990
C1659       C  0.29345181  0.66999952  0.60929613     1.02720
O1660       O  0.31500503  0.67767832  0.59202690    -0.77760
O1661       O  0.35914299  0.70974014  0.62284845    -0.77940
C1662       C  0.38101291  0.71373846  0.64041901     1.02670
O1663       O  0.42217432  0.64165958  0.61937162    -0.85270
O1664       O  0.38923044  0.60188754  0.65594731    -0.82330
C1665       C  0.37623154  0.57983186  0.64337035     0.98210
O1666       O  0.35683466  0.58460259  0.62328481    -0.82360
O1667       O  0.32363385  0.61812990  0.58186639    -0.84960
C1668       C  0.33960441  0.62597601  0.55934145     1.02680
O1669       O  0.36112962  0.64417984  0.56257840    -0.77780
O1670       O  0.40471113  0.67827935  0.59138829    -0.77930
C1671       C  0.42668765  0.66250980  0.60048792     1.02650
Cr1672     Cr  0.39012826  0.64656286  0.65065340     1.93740
Cr1673     Cr  0.33012410  0.62052727  0.62652317     1.93210
Cr1674     Cr  0.35992679  0.67496997  0.59475936     1.39100
O1675       O  0.36003058  0.64736982  0.62413114    -1.23020
C1676       C  0.23133821  0.71078767  0.93374180     0.03210
C1677       C  0.25838967  0.70466009  0.91885132    -0.12940
C1678       C  0.26082688  0.68079456  0.89837757     0.00710
C1679       C  0.23383955  0.66637450  0.88866529    -0.11470
C1680       C  0.20601795  0.67364315  0.90299250     0.03200
C1681       C  0.20689354  0.69209792  0.92849861    -0.10890
H1682       H  0.27783748  0.71871909  0.92299251     0.08800
H1683       H  0.23455266  0.64968351  0.87102204     0.06320
H1684       H  0.18707979  0.69471437  0.94253936     0.06170
C1685       C  0.30121677  0.58916056  0.75149794     0.03210
C1686       C  0.31764996  0.59534967  0.72568080    -0.12940
C1687       C  0.33671066  0.62053887  0.72413171     0.00710
C1688       C  0.34600425  0.63393152  0.75174913    -0.11470
C1689       C  0.33330126  0.62331377  0.77954152     0.03200
C1690       C  0.30982366  0.60204635  0.77840915    -0.10890
H1691       H  0.31053286  0.58392883  0.70541754     0.08800
H1692       H  0.36244482  0.65194733  0.75163094     0.06320
H1693       H  0.29650492  0.59688418  0.79831719     0.06170
O1694       O  0.35861299  0.64971913  0.94042852    -0.85270
O1695       O  0.40331659  0.68177152  0.90985162    -0.82310
C1696       C  0.42537705  0.66581007  0.90106835     0.98190
O1697       O  0.42129599  0.64510709  0.88221322    -0.82350
O1698       O  0.38999574  0.60425705  0.84707817    -0.84990
C1699       C  0.37965727  0.58238290  0.86246207     1.02720
O1700       O  0.35978389  0.58718946  0.88231379    -0.77760
O1701       O  0.32339945  0.62130987  0.92122399    -0.77940
C1702       C  0.33715557  0.63145083  0.94396260     1.02670
O1703       O  0.31336526  0.68064930  0.90720013    -0.85270
O1704       O  0.35805049  0.71235029  0.87627585    -0.82330
C1705       C  0.38014432  0.71608475  0.85875017     0.98210
O1706       O  0.39522748  0.69352747  0.84996520    -0.82360
O1707       O  0.36207824  0.65266787  0.81540775    -0.84960
C1708       C  0.34301172  0.63218758  0.81046797     1.02680
O1709       O  0.33254738  0.61678455  0.83229765    -0.77780
O1710       O  0.29749184  0.65116504  0.87117272    -0.77930
C1711       C  0.29210993  0.67072878  0.89094646     1.02650
Cr1712     Cr  0.35842001  0.67852674  0.90593504     1.93740
Cr1713     Cr  0.38946068  0.64900456  0.85104207     1.93210
Cr1714     Cr  0.33092189  0.62160071  0.87689076     1.39100
O1715       O  0.35956052  0.64977626  0.87796594    -1.23020
C1716       C  0.42220808  0.77055612  0.68602511     0.03210
C1717       C  0.41638077  0.74544382  0.66846495    -0.12940
C1718       C  0.39091703  0.74433522  0.64994808     0.00710
C1719       C  0.37610622  0.77176357  0.64258867    -0.11470
C1720       C  0.38554064  0.79895674  0.65643240     0.03200
C1721       C  0.40719388  0.79736449  0.67941462    -0.10890
H1722       H  0.42937882  0.72524703  0.67287693     0.08800
H1723       H  0.35797623  0.77198421  0.62637296     0.06320
H1724       H  0.41152472  0.81698265  0.69308708     0.06170
C1725       C  0.23414464  0.83309057  0.56411700     0.03210
C1726       C  0.20863791  0.85030226  0.57016995    -0.12940
C1727       C  0.20710150  0.86875578  0.59560700     0.00710
C1728       C  0.23445121  0.87720428  0.60965925    -0.11470
C1729       C  0.26196831  0.86411514  0.59975751     0.03200
C1730       C  0.26081568  0.84036451  0.57902075    -0.10890
H1731       H  0.18872634  0.84670699  0.55669151     0.08800
H1732       H  0.23439458  0.89388846  0.62732177     0.06320
H1733       H  0.28090606  0.82716761  0.57511387     0.06170
O1734       O  0.35575514  0.83390953  0.62721016    -0.85270
O1735       O  0.31469053  0.86614030  0.59259876    -0.82310
C1736       C  0.29245445  0.87528007  0.60807249     0.98190
O1737       O  0.29627670  0.89485459  0.62813786    -0.82350
O1738       O  0.32730764  0.92971537  0.66936279    -0.84990
C1739       C  0.33598940  0.91416812  0.69167366     1.02720
O1740       O  0.35497440  0.89338572  0.68796679    -0.77760
O1741       O  0.39026632  0.85183329  0.65724623    -0.77940
C1742       C  0.37577702  0.82967046  0.64685035     1.02670
O1743       O  0.40400993  0.86390933  0.59786552    -0.85270
O1744       O  0.36295568  0.89708821  0.56322118    -0.82330
C1745       C  0.34232329  0.91606076  0.55832528     0.98210
O1746       O  0.32634901  0.92546858  0.58006662    -0.82360
O1747       O  0.35917973  0.95868724  0.62195441    -0.85040
C1748       C  0.37762162  0.96310342  0.64303710     1.02680
O1749       O  0.38679562  0.94113810  0.65893484    -0.77780
O1750       O  0.42140802  0.89898740  0.62753895    -0.77930
C1751       C  0.42609920  0.87820271  0.60884934     1.02650
Cr1752     Cr  0.35931793  0.86789207  0.59771217     1.93740
Cr1753     Cr  0.32985651  0.92462599  0.62488825     1.93210
Cr1754     Cr  0.38582736  0.89641444  0.65527520     1.39100
O1755       O  0.35849366  0.89638575  0.62584653    -1.23020
C1756       C  0.29431636  0.95919826  0.74999473     0.03210
C1757       C  0.30172053  0.94453343  0.72322164    -0.12940
C1758       C  0.32520543  0.92328746  0.72204556     0.00710
C1759       C  0.33850011  0.91351276  0.74942674    -0.11470
C1760       C  0.33034564  0.92781067  0.77672118     0.03200
C1761       C  0.31163918  0.95319817  0.77538543    -0.10890
H1762       H  0.28851627  0.94881113  0.70323381     0.08800
H1763       H  0.35503825  0.89558996  0.74943657     0.06320
H1764       H  0.30737145  0.96622232  0.79549122     0.06170
C1765       C  0.41975366  0.77184112  0.80968614     0.03210
C1766       C  0.41474153  0.74715878  0.82838256    -0.12940
C1767       C  0.38989844  0.74641094  0.84791138     0.00710
C1768       C  0.37556265  0.77398088  0.85513921    -0.11470
C1769       C  0.38502815  0.80100530  0.84055615     0.03200
C1770       C  0.40571651  0.79911253  0.81657930    -0.10890
H1771       H  0.42781927  0.72696733  0.82431543     0.08800
H1772       H  0.35802210  0.77449827  0.87215699     0.06320
H1773       H  0.41015623  0.81877064  0.80268598     0.06170
C1774       C  0.23156277  0.83301206  0.93260044     0.03210
C1775       C  0.20640914  0.85078945  0.92695142    -0.12940
C1776       C  0.20530095  0.87017497  0.90193152     0.00710
C1777       C  0.23289409  0.87822041  0.88759803    -0.11470
C1778       C  0.26011326  0.86402920  0.89692364     0.03200
C1779       C  0.25832896  0.83983058  0.91738777    -0.10890
H1780       H  0.18641743  0.84693639  0.94048723     0.08800
H1781       H  0.23327155  0.89546973  0.87026226     0.06320
H1782       H  0.27804065  0.82599073  0.92101616     0.06170
O1783       O  0.32367275  0.92299046  0.91918619    -0.85270
O1784       O  0.35664673  0.95960477  0.87901088    -0.82310
C1785       C  0.37544275  0.96517076  0.85830241     0.98190
O1786       O  0.38692737  0.94357090  0.84350443    -0.82350
O1787       O  0.42041236  0.90050388  0.87528854    -0.84990
C1788       C  0.42469765  0.87844308  0.89275726     1.02720
O1789       O  0.40243277  0.86276018  0.90171098    -0.77760
O1790       O  0.35980911  0.89406873  0.93632691    -0.77940
C1791       C  0.33854033  0.91228988  0.94122946     1.02670
O1792       O  0.29571873  0.89454704  0.86902208    -0.85270
O1793       O  0.32859655  0.93124281  0.82979655    -0.82330
C1794       C  0.33962974  0.91757736  0.80730179     0.98210
O1795       O  0.35843449  0.89671468  0.81125053    -0.82360
O1796       O  0.39193963  0.85383913  0.84227847    -0.84960
C1797       C  0.37607498  0.83154566  0.85078361     1.02680
O1798       O  0.35492204  0.83522327  0.86941566    -0.77780
O1799       O  0.31277464  0.86493114  0.90457815    -0.77930
C1800       C  0.29102617  0.87468506  0.88887689     1.02650
Cr1801     Cr  0.32874498  0.92456017  0.87431368     1.93740
Cr1802     Cr  0.38687419  0.89857866  0.84564769     1.93210
Cr1803     Cr  0.35760660  0.86693073  0.90062485     1.39100
O1804       O  0.35790587  0.89688129  0.87366943    -1.23020
C1805       C  0.17088687  0.95553944  0.74955846     0.03210
C1806       C  0.15238534  0.95071044  0.77433378    -0.12940
C1807       C  0.13364933  0.92532888  0.77605298     0.00710
C1808       C  0.12568553  0.91093871  0.74862639    -0.11470
C1809       C  0.13969615  0.92053094  0.72116508     0.03200
C1810       C  0.16400147  0.94085224  0.72278440    -0.10890
H1811       H  0.15578873  0.96475893  0.79386554     0.08800
H1812       H  0.10874381  0.89339513  0.74855653     0.06320
H1813       H  0.17784316  0.94501265  0.70305020     0.06170
C1814       C  0.04829013  0.77507545  0.81269160     0.03210
C1815       C  0.06347623  0.74834597  0.81928972    -0.12940
C1816       C  0.08449845  0.74655535  0.84284777     0.00710
C1817       C  0.09382001  0.77380645  0.85689140    -0.11470
C1818       C  0.07922388  0.80137560  0.84922375     0.03200
C1819       C  0.05402533  0.80017747  0.83030421    -0.10890
H1820       H  0.05942490  0.72873811  0.80553024     0.08800
H1821       H  0.11147260  0.77348533  0.87362194     0.06320
H1822       H  0.04065852  0.82018394  0.82623764     0.06170
O1823       O  0.10550974  0.89540492  0.81269073    -0.85270
O1824       O  0.07337030  0.85441750  0.84897108    -0.82310
C1825       C  0.08851814  0.83225823  0.85903486     0.98190
O1826       O  0.10995165  0.83688829  0.87701672    -0.82350
O1827       O  0.15243429  0.87118570  0.90845947    -0.84990
C1828       C  0.17457689  0.88054551  0.89283894     1.02720
O1829       O  0.17005816  0.89837090  0.87112135    -0.77760
O1830       O  0.13589113  0.93055152  0.82893481    -0.77940
C1831       C  0.12442217  0.91599703  0.80727487     1.02670
O1832       O  0.07724584  0.94388340  0.84239001    -0.85270
O1833       O  0.04512233  0.90353719  0.87890378    -0.82330
C1834       C  0.04087416  0.88307950  0.89829401     0.98210
O1835       O  0.06295874  0.86754629  0.90753521    -0.82360
O1836       O  0.10500328  0.90261281  0.93727462    -0.84960
C1837       C  0.12589247  0.92147632  0.94081469     1.02680
O1838       O  0.14138099  0.93044025  0.91841384    -0.77780
O1839       O  0.10752483  0.96221094  0.87641279    -0.77930
C1840       C  0.08841280  0.96631033  0.85593915     1.02650
Cr1841     Cr  0.07792873  0.89926495  0.84824873     1.93740
Cr1842     Cr  0.10765965  0.87202617  0.90491160     1.93210
Cr1843     Cr  0.13612886  0.92777854  0.87380363     1.39100
O1844       O  0.10738148  0.89958132  0.87547407    -1.23020
C1845       C  0.17425234  0.58829632  0.75085923     0.03210
C1846       C  0.16404621  0.60000251  0.77794409    -0.12940
C1847       C  0.13947208  0.61991363  0.77872674     0.00710
C1848       C  0.12666037  0.62974661  0.75107123    -0.11470
C1849       C  0.13701596  0.61714772  0.72358819     0.03200
C1850       C  0.15813128  0.59376794  0.72474831    -0.10890
H1851       H  0.17684195  0.59535874  0.79818472     0.08800
H1852       H  0.10898126  0.64654910  0.75096202     0.06320
H1853       H  0.16657924  0.58370203  0.70418200     0.06170
O1854       O  0.13780754  0.61757123  0.92032345    -0.85270
O1855       O  0.10291155  0.58617887  0.87928911    -0.82310
C1856       C  0.08413652  0.58221709  0.85846714     0.98190
O1857       O  0.07603446  0.60424012  0.84210568    -0.82350
O1858       O  0.04476465  0.64807665  0.87428632    -0.84990
C1859       C  0.04111746  0.66929954  0.89267864     1.02720
O1860       O  0.06381326  0.68343227  0.90261497    -0.77760
O1861       O  0.10354562  0.64865784  0.93724551    -0.77940
C1862       C  0.12326742  0.62875489  0.94215532     1.02670
O1863       O  0.17048069  0.64511045  0.87282728    -0.85270
O1864       O  0.13627797  0.61282625  0.83123410    -0.82330
C1865       C  0.12813480  0.62871788  0.80891635     0.98210
O1866       O  0.10986980  0.65016506  0.81249160    -0.82360
O1867       O  0.07724615  0.69384062  0.84332809    -0.84960
C1868       C  0.09305053  0.71550198  0.85296889     1.02680
O1869       O  0.11329945  0.71053376  0.87223690    -0.77780
O1870       O  0.15297391  0.67592183  0.90697795    -0.77930
C1871       C  0.17515351  0.66423588  0.89318548     1.02650
Cr1872     Cr  0.13434500  0.61812278  0.87573887     1.93740
Cr1873     Cr  0.07954165  0.64897268  0.84564327     1.93210
Cr1874     Cr  0.10832730  0.67700971  0.90223249     1.39100
O1875       O  0.10744772  0.64808249  0.87453685    -1.23020
C1876       C  0.04931376  0.77416954  0.68991435     0.03210
C1877       C  0.06384548  0.74701930  0.68354466    -0.12940
C1878       C  0.08474489  0.74495767  0.65976473     0.00710
C1879       C  0.09444269  0.77196036  0.64519734    -0.11470
C1880       C  0.07991785  0.79955822  0.65214656     0.03200
C1881       C  0.05454561  0.79867704  0.67104919    -0.10890
H1882       H  0.05937284  0.72742140  0.69750024     0.08800
H1883       H  0.11222150  0.77139643  0.62843542     0.06320
H1884       H  0.04082716  0.81859813  0.67415274     0.06170
O1885       O  0.06435091  0.86560547  0.59273805    -0.85270
O1886       O  0.10737688  0.89816502  0.56062357    -0.82310
C1887       C  0.12860856  0.91658277  0.55660560     0.98190
O1888       O  0.14272726  0.92692520  0.57903337    -0.82350
O1889       O  0.10832069  0.95946684  0.62043562    -0.84990
C1890       C  0.08924881  0.96368633  0.64111090     1.02720
O1891       O  0.08005816  0.94158800  0.65684396    -0.77760
O1892       O  0.04721797  0.90159304  0.62177190    -0.77940
C1893       C  0.04259532  0.88150929  0.60234338     1.02670
O1894       O  0.11119987  0.83431903  0.62356491    -0.85270
O1895       O  0.15409417  0.86747598  0.59097285    -0.82330
C1896       C  0.17628956  0.87805101  0.60542100     0.98210
O1897       O  0.17186730  0.89651365  0.62642434    -0.82360
O1898       O  0.13859851  0.92897198  0.66853938    -0.84960
C1899       C  0.12909330  0.91273352  0.69024518     1.02680
O1900       O  0.10974073  0.89246176  0.68546939    -0.77780
O1901       O  0.07499905  0.85248729  0.65156928    -0.77930
C1902       C  0.08969864  0.83011463  0.64174213     1.02650
Cr1903     Cr  0.10927880  0.86889051  0.59463985     1.93740
Cr1904     Cr  0.13773554  0.92550032  0.62361720     1.93210
Cr1905     Cr  0.08060190  0.89700613  0.65143475     1.39100
O1906       O  0.10929810  0.89706037  0.62321826    -1.23020
O1907       O  0.04688820  0.64578460  0.62586486    -0.85270
O1908       O  0.07967099  0.60247001  0.65819298    -0.82310
C1909       C  0.09033735  0.58056844  0.64329997     0.98190
O1910       O  0.10854113  0.58559585  0.62203524    -0.82350
O1911       O  0.14135692  0.62066447  0.58102303    -0.84990
C1912       C  0.12706715  0.63249144  0.55918593     1.02720
O1913       O  0.10624252  0.65111325  0.56435350    -0.77760
O1914       O  0.06517023  0.68351468  0.59963478    -0.77940
C1915       C  0.04276267  0.66793547  0.60846642     1.02670
O1916       O  0.07674975  0.69227574  0.65820497    -0.85270
O1917       O  0.10952701  0.64881155  0.68922584    -0.82330
C1918       C  0.12785080  0.62749322  0.69304206     0.98210
O1919       O  0.13839631  0.61347555  0.67049140    -0.82360
O1920       O  0.17219315  0.64793974  0.62955720    -0.84960
C1921       C  0.17685941  0.66677016  0.60872595     1.02680
O1922       O  0.15467044  0.67825171  0.59488322    -0.77780
O1923       O  0.11420799  0.70984068  0.63101802    -0.77930
C1924       C  0.09317296  0.71416722  0.64965101     1.02650
Cr1925     Cr  0.08068753  0.64737259  0.65527501     1.93740
Cr1926     Cr  0.13757072  0.61952929  0.62585741     1.93210
Cr1927     Cr  0.10994722  0.67807877  0.59994265     1.39100
O1928       O  0.10936261  0.64819606  0.62695119    -1.23020
C1929       C  0.04154040  0.80567111  0.76682237    -0.21230
C1930       C  0.03392412  0.77941263  0.78287601    -0.09270
C1931       C  0.02063873  0.75541949  0.76716323     0.29590
C1932       C  0.02143444  0.75536090  0.73566800    -0.21230
C1933       C  0.03546466  0.77917231  0.71991245    -0.09280
C1934       C  0.04293740  0.80555008  0.73582909     0.29600
F1935       F  0.05684843  0.82948143  0.72257989    -0.19800
H1936       H  0.05140209  0.82500384  0.77778333     0.17960
H1937       H  0.01389188  0.73546836  0.72385902     0.17970
F1938       F  0.00975180  0.73093157  0.78208205    -0.19790
C1939       C  0.24811948  0.96476777  0.78040743    -0.21230
C1940       C  0.26394192  0.97265881  0.75407222    -0.09270
C1941       C  0.24771543  0.98526688  0.72990148     0.29590
C1942       C  0.21620798  0.98359874  0.72987460    -0.21230
C1943       C  0.20091187  0.96948272  0.75394510    -0.09280
C1944       C  0.21716707  0.96252755  0.78032663     0.29600
F1945       F  0.20440108  0.94846171  0.80445115    -0.19800
H1946       H  0.25933501  0.95538245  0.79990823     0.17960
H1947       H  0.20409769  0.99069123  0.70992594     0.17970
F1948       F  0.26221637  0.99649405  0.70531199    -0.19790
C1949       C  0.44783383  0.78966065  0.76365905    -0.21230
C1950       C  0.43230095  0.76671760  0.77925915    -0.09270
C1951       C  0.42275489  0.74108754  0.76328546     0.29590
C1952       C  0.42498606  0.74052851  0.73239231    -0.21230
C1953       C  0.43514597  0.76589847  0.71634177    -0.09280
C1954       C  0.44927164  0.78931164  0.73217784     0.29600
F1955       F  0.46174985  0.81303989  0.71727449    -0.19800
H1956       H  0.45637340  0.80908548  0.77556395     0.17960
H1957       H  0.41396482  0.72191789  0.72126507     0.17970
F1958       F  0.40639195  0.71865532  0.77640028    -0.19790
C1959       C  0.25351565  0.60276482  0.72920276    -0.21230
C1960       C  0.26927176  0.58239514  0.74740710    -0.09270
C1961       C  0.25349962  0.56102216  0.76482938     0.29590
C1962       C  0.22191271  0.56111523  0.76468684    -0.21230
C1963       C  0.20650128  0.58272820  0.74738821    -0.09280
C1964       C  0.22268357  0.60336308  0.72948495     0.29600
F1965       F  0.20883542  0.62635055  0.71463272    -0.19800
H1966       H  0.26515551  0.62029391  0.71658039     0.17960
H1967       H  0.20957174  0.54548149  0.77897739     0.17970
F1968       F  0.26852321  0.54132300  0.78276982    -0.19790
C1969       C  0.25125836  0.75593102  0.96077994    -0.21230
C1970       C  0.22666556  0.74040870  0.94836009    -0.09270
C1971       C  0.20003973  0.75670135  0.94228017     0.29590
C1972       C  0.20052222  0.78776180  0.94247389    -0.21230
C1973       C  0.22748500  0.80338470  0.94779231    -0.09280
C1974       C  0.25187625  0.78739301  0.96020498     0.29600
F1975       F  0.27739380  0.80181486  0.96865917    -0.19800
H1976       H  0.27136303  0.74389488  0.96760913     0.17960
H1977       H  0.18077533  0.79886141  0.93349803     0.17970
F1978       F  0.17501493  0.74367992  0.93066570    -0.19790
C1979       C  0.25463759  0.75577929  0.53773303    -0.21230
C1980       C  0.22965955  0.74035591  0.54996512    -0.09270
C1981       C  0.20283428  0.75678397  0.55488097     0.29590
C1982       C  0.20335692  0.78782391  0.55391063    -0.21230
C1983       C  0.23052714  0.80342578  0.54913153    -0.09280
C1984       C  0.25528428  0.78726172  0.53762030     0.29600
F1985       F  0.28101884  0.80153463  0.52914174    -0.19800
H1986       H  0.27490238  0.74369461  0.53143537     0.17960
H1987       H  0.18319391  0.79891038  0.56197894     0.17970
F1988       F  0.17728110  0.74406800  0.56605772    -0.19790
C1989       C  0.49646467  0.54335739  0.78836955    -0.21230
C1990       C  0.01192641  0.51885183  0.80136769    -0.09270
C1991       C  0.49551501  0.49232738  0.80797174     0.29590
C1992       C  0.46447895  0.49270215  0.80724577    -0.21230
C1993       C  0.44884364  0.51951917  0.80114266    -0.09280
C1994       C  0.46491947  0.54378722  0.78830199     0.29600
F1995       F  0.45039807  0.56888881  0.77854026    -0.19800
H1996       H  0.00857137  0.56337844  0.78121118     0.17960
H1997       H  0.45329662  0.97302114  0.81649581     0.17970
F1998       F  0.00831652  0.96749395  0.82050003    -0.19790
C1999       C  0.46543126  0.54786189  0.67634515    -0.21230
C2000       C  0.45007193  0.52705854  0.69463610    -0.09270
C2001       C  0.46648945  0.50724282  0.71315830     0.29590
C2002       C  0.49803185  0.50689952  0.71132601    -0.21230
C2003       C  0.01286798  0.52615545  0.69085801    -0.09280
C2004       C  0.49618475  0.54704258  0.67385811     0.29600
F2005       F  0.00909945  0.56420600  0.65184739    -0.19800
H2006       H  0.45352445  0.56267982  0.66097009     0.17960
H2007       H  0.01067574  0.49058292  0.72439514     0.17970
F2008       F  0.45203785  0.48718066  0.73131785    -0.19790
C2009       C  0.46641008  0.73820335  0.98567363    -0.21230
C2010       C  0.49051361  0.72471425  0.97005583    -0.09270
C2011       C  0.01715889  0.71812211  0.98608503     0.29590
C2012       C  0.01715676  0.71925068  0.51710347    -0.21230
C2013       C  0.49051568  0.72557933  0.53299380    -0.09280
C2014       C  0.46633904  0.73863078  0.51717523     0.29600
F2015       F  0.44153123  0.74873366  0.53196696    -0.19800
H2016       H  0.44636134  0.74538116  0.97379528     0.17960
H2017       H  0.03678363  0.70992701  0.52812400     0.17970
F2018       F  0.04159497  0.70513764  0.97302513    -0.19790
C2019       C  0.00206628  0.81052902  0.51655473    -0.21230
C2020       C  0.47791661  0.82390869  0.53219202    -0.09270
C2021       C  0.45132074  0.83063432  0.51617234     0.29590
C2022       C  0.45129326  0.82952935  0.98517636    -0.21230
C2023       C  0.47781650  0.82287583  0.96920707    -0.09280
C2024       C  0.00207489  0.80999259  0.98505594     0.29600
F2025       F  0.02679884  0.79966116  0.97028615    -0.19800
H2026       H  0.02211535  0.80335508  0.52843910     0.17960
H2027       H  0.43166126  0.83890467  0.97421309     0.17970
F2028       F  0.42690613  0.84362285  0.52927503    -0.19790
C2029       C  0.29463031  0.50545993  0.96953679    -0.21230
C2030       C  0.28572653  0.98895408  0.49526028    -0.09270
C2031       C  0.27156967  0.50446974  0.51898450     0.29590
C2032       C  0.27151573  0.53601500  0.51898847    -0.21230
C2033       C  0.28562956  0.55211177  0.49543467    -0.09280
C2034       C  0.29498345  0.53646250  0.96958778     0.29600
F2035       F  0.30949297  0.55000446  0.94615605    -0.19800
H2036       H  0.30566154  0.99469155  0.95066372     0.17960
H2037       H  0.26286989  0.54770798  0.53856097     0.17970
F2038       F  0.26019219  0.98934434  0.54313136    -0.19790
C2039       C  0.16219681  0.54199537  0.52784620    -0.21230
C2040       C  0.17870962  0.55812228  0.00617344    -0.09270
C2041       C  0.19704719  0.54254057  0.98560237     0.29590
C2042       C  0.19623632  0.51100582  0.98503471    -0.21230
C2043       C  0.17697290  0.99530249  0.50483156    -0.09280
C2044       C  0.16062908  0.51118679  0.52682239     0.29600
F2045       F  0.13965999  0.99754088  0.54469300    -0.19800
H2046       H  0.14711070  0.55328133  0.54340304     0.17960
H2047       H  0.20888983  0.99902795  0.96795317     0.17970
F2048       F  0.21379344  0.55777863  0.96489800    -0.19790
C2049       C  0.66852960  0.46380719  0.99981067     0.03210
C2050       C  0.66347929  0.44594707  0.02502263    -0.12940
C2051       C  0.63885047  0.42625987  0.02605474     0.00710
C2052       C  0.62517599  0.41792425  0.49852295    -0.11470
C2053       C  0.63491962  0.43181252  0.47119453     0.03200
C2054       C  0.65544450  0.45586397  0.47260568    -0.10890
H2055       H  0.67520029  0.45203891  0.04547402     0.08800
H2056       H  0.60769893  0.40090552  0.49832433     0.06320
H2057       H  0.65998681  0.46956177  0.45280911     0.06170
C2058       C  0.79700109  0.08329343  0.00012524     0.03210
C2059       C  0.81035999  0.09110032  0.02745273    -0.12940
C2060       C  0.83065001  0.11535445  0.02904151     0.00710
C2061       C  0.84045110  0.12932348  0.00184133    -0.11470
C2062       C  0.82677307  0.12122460  0.47430325     0.03200
C2063       C  0.80215514  0.10151022  0.47517843    -0.10890
H2064       H  0.80596028  0.07759153  0.04738701     0.08800
H2065       H  0.85790190  0.14635711  0.00216405     0.06320
H2066       H  0.78930883  0.09722639  0.45497482     0.06170
C2067       C  0.98266959  0.33801763  0.06200709     0.03210
C2068       C  0.50966321  0.35279988  0.06831818    -0.12940
C2069       C  0.51166001  0.37344348  0.09213052     0.00710
C2070       C  0.98451595  0.38307509  0.10640190    -0.11470
C2071       C  0.95693989  0.36857404  0.09918897     0.03200
C2072       C  0.95811564  0.34307958  0.08074070    -0.10890
H2073       H  0.52926750  0.34854238  0.05438532     0.08800
H2074       H  0.98493956  0.40079175  0.12302190     0.06320
H2075       H  0.93837443  0.32906252  0.07791795     0.06170
C2076       C  0.98554604  0.21022876  0.44043944     0.03210
C2077       C  0.95833280  0.19558941  0.43439768    -0.12940
C2078       C  0.95617389  0.17444111  0.41107409     0.00710
C2079       C  0.98310115  0.16473072  0.39659293    -0.11470
C2080       C  0.51073649  0.17928506  0.40316531     0.03200
C2081       C  0.51004084  0.20472407  0.42166894    -0.10890
H2082       H  0.93874028  0.20018769  0.44823360     0.08800
H2083       H  0.98245678  0.14684604  0.38015578     0.06320
H2084       H  0.53000458  0.21846597  0.42424115     0.06170
C2085       C  0.79910604  0.45873305  0.99918913     0.03210
C2086       C  0.81359619  0.45098459  0.02591733    -0.12940
C2087       C  0.83396758  0.42672443  0.02736064     0.00710
C2088       C  0.84328377  0.41301218  0.99984320    -0.11470
C2089       C  0.82915675  0.42159688  0.47232231     0.03200
C2090       C  0.80445803  0.44124153  0.47378524    -0.10890
H2091       H  0.80964185  0.46449651  0.04574361     0.08800
H2092       H  0.86055014  0.39579071  0.99991997     0.06320
H2093       H  0.79151940  0.44628958  0.45376892     0.06170
C2094       C  0.66913970  0.08941296  0.50129616     0.03210
C2095       C  0.66315218  0.10649089  0.02657670    -0.12940
C2096       C  0.63725240  0.12452948  0.02806870     0.00710
C2097       C  0.62272530  0.13258914  0.00059167    -0.11470
C2098       C  0.63282742  0.11943153  0.47308142     0.03200
C2099       C  0.65481821  0.09661629  0.47450075    -0.10890
H2100       H  0.67560067  0.10078447  0.04676766     0.08800
H2101       H  0.60423180  0.14848425  0.00061131     0.06320
H2102       H  0.65975809  0.08301579  0.45491068     0.06170
C2103       C  0.98189439  0.33768918  0.43937176     0.03210
C2104       C  0.50867742  0.35278988  0.43239613    -0.12940
C2105       C  0.51015815  0.37411693  0.40886276     0.00710
C2106       C  0.98283106  0.38366731  0.39514491    -0.11470
C2107       C  0.95536696  0.36907186  0.40298901     0.03200
C2108       C  0.95658527  0.34374873  0.42197526    -0.10890
H2109       H  0.52852737  0.34852876  0.44581033     0.08800
H2110       H  0.98302754  0.40146554  0.37836744     0.06320
H2111       H  0.93653278  0.33040357  0.42602298     0.06170
C2112       C  0.98605741  0.20979727  0.06226237     0.03210
C2113       C  0.51107903  0.20340171  0.07995543    -0.12940
C2114       C  0.51216100  0.17749107  0.09815347     0.00710
C2115       C  0.98469433  0.16232980  0.10488254    -0.11470
C2116       C  0.95756897  0.17195989  0.09079409     0.03200
C2117       C  0.95933073  0.19412793  0.06808454    -0.10890
H2118       H  0.53109658  0.21700378  0.07667832     0.08800
H2119       H  0.98434015  0.14397669  0.12104808     0.06320
H2120       H  0.93972940  0.19865684  0.05438779     0.06170
C2121       C  0.91825314  0.02232824  0.18711994     0.03210
C2122       C  0.91028720  0.49519138  0.17396873    -0.12940
C2123       C  0.88751681  0.49384302  0.15208511     0.00710
C2124       C  0.87505403  0.02137084  0.14108709    -0.11470
C2125       C  0.88354584  0.04899566  0.15474163     0.03200
C2126       C  0.90134135  0.04779873  0.18071734    -0.10890
H2127       H  0.92346721  0.47532756  0.17932689     0.08800
H2128       H  0.85933756  0.02129040  0.12252581     0.06320
H2129       H  0.90743798  0.06829159  0.19237027     0.06170
C2130       C  0.54201715  0.02313331  0.31526165     0.03210
C2131       C  0.54918872  0.05014669  0.32960800    -0.12940
C2132       C  0.57303632  0.05168371  0.35031152     0.00710
C2133       C  0.58666633  0.02437701  0.36014795    -0.11470
C2134       C  0.57882782  0.49695610  0.34594436     0.03200
C2135       C  0.56019870  0.49822418  0.32061086    -0.10890
H2136       H  0.53586513  0.07008525  0.32512874     0.08800
H2137       H  0.60339080  0.02455551  0.37780544     0.06320
H2138       H  0.55702628  0.47841449  0.30690169     0.06170
C2139       C  0.91929155  0.02363633  0.31643826     0.03210
C2140       C  0.91303710  0.05006739  0.33207249    -0.12940
C2141       C  0.88977011  0.05141142  0.35371532     0.00710
C2142       C  0.87636026  0.02381386  0.36364407    -0.11470
C2143       C  0.88408120  0.49649468  0.34878026     0.03200
C2144       C  0.90168078  0.49843839  0.32251810    -0.10890
H2145       H  0.92674287  0.06979933  0.32777609     0.08800
H2146       H  0.86021156  0.02366784  0.38198575     0.06320
H2147       H  0.90494799  0.47880837  0.30853572     0.06170
C2148       C  0.54456080  0.02210413  0.18250461     0.03210
C2149       C  0.56139063  0.04786889  0.17735615    -0.12940
C2150       C  0.58148815  0.04948461  0.15301716     0.00710
C2151       C  0.59124399  0.02202265  0.13969770    -0.11470
C2152       C  0.57818954  0.49423647  0.14953288     0.03200
C2153       C  0.55363185  0.49516633  0.16964684    -0.10890
H2154       H  0.55418989  0.06811233  0.18887792     0.08800
H2155       H  0.60864639  0.02222660  0.12253069     0.06320
H2156       H  0.54041196  0.47509504  0.17419369     0.06170
C2157       C  0.73382482  0.21082524  0.06540114     0.03210
C2158       C  0.76087930  0.20416215  0.08000256    -0.12940
C2159       C  0.76263934  0.18093487  0.10157151     0.00710
C2160       C  0.73533241  0.16782998  0.11242670    -0.11470
C2161       C  0.70772492  0.17543299  0.09817789     0.03200
C2162       C  0.70896205  0.19285437  0.07176927    -0.10890
H2163       H  0.78082030  0.21731566  0.07494477     0.08800
H2164       H  0.73564220  0.15173514  0.13083617     0.06320
H2165       H  0.68921301  0.19512292  0.05775353     0.06170
O2166       O  0.89593207  0.19130594  0.15016488    -0.85270
O2167       O  0.86380179  0.15101211  0.18709754    -0.82310
C2168       C  0.84442033  0.13098020  0.19281636     0.98190
O2169       O  0.83151968  0.11749606  0.17128969    -0.82350
O2170       O  0.79815533  0.15184836  0.13065928    -0.84990
C2171       C  0.79344939  0.17004483  0.10932578     1.02720
O2172       O  0.81500107  0.17772931  0.09205663    -0.77760
O2173       O  0.85914521  0.20977773  0.12286851    -0.77940
C2174       C  0.88101962  0.21377468  0.14043180     1.02670
O2175       O  0.92216941  0.14169353  0.11938021    -0.85270
O2176       O  0.88922449  0.10192120  0.15594925    -0.82330
C2177       C  0.87622613  0.07986845  0.14336625     0.98210
O2178       O  0.85683037  0.08464472  0.12328019    -0.82360
O2179       O  0.82361693  0.11819440  0.08188054    -0.84960
C2180       C  0.83957184  0.12605316  0.05934888     1.02680
O2181       O  0.86111377  0.14423577  0.06258620    -0.77780
O2182       O  0.90470900  0.17831669  0.09139857    -0.77930
C2183       C  0.92668387  0.16254267  0.10049598     1.02650
Cr2184     Cr  0.89012677  0.14659742  0.15066391     1.93740
Cr2185     Cr  0.83012099  0.12056992  0.12653420     1.93210
Cr2186     Cr  0.85992320  0.17501525  0.09477609     1.39100
O2187       O  0.86002840  0.14741046  0.12414334    -1.23020
C2188       C  0.73134206  0.21078483  0.43374703     0.03210
C2189       C  0.75839653  0.20464833  0.41886494    -0.12940
C2190       C  0.76083293  0.18077972  0.39839439     0.00710
C2191       C  0.73384441  0.16636449  0.38867774    -0.11470
C2192       C  0.70602132  0.17363957  0.40299869     0.03200
C2193       C  0.70689552  0.19209789  0.42850216    -0.10890
H2194       H  0.77784683  0.21870306  0.42300872     0.08800
H2195       H  0.73455778  0.14967140  0.37103646     0.06320
H2196       H  0.68708021  0.19471830  0.44253979     0.06170
C2197       C  0.80122039  0.08917023  0.25149500     0.03210
C2198       C  0.81765603  0.09536448  0.22568067    -0.12940
C2199       C  0.83671517  0.12055566  0.22413769     0.00710
C2200       C  0.84600657  0.13394309  0.25175739    -0.11470
C2201       C  0.83330209  0.12331937  0.27954605     0.03200
C2202       C  0.80982415  0.10205257  0.27840866    -0.10890
H2203       H  0.81054194  0.08394597  0.20541504     0.08800
H2204       H  0.86244662  0.15195941  0.25164374     0.06320
H2205       H  0.79650419  0.09688684  0.29831496     0.06170
O2206       O  0.85862756  0.14967222  0.44043377    -0.85270
O2207       O  0.90332160  0.18174544  0.40986369    -0.82310
C2208       C  0.92538265  0.16578718  0.40107765     0.98190
O2209       O  0.92130181  0.14508546  0.38222104    -0.82350
O2210       O  0.89000073  0.10424107  0.34707795    -0.84990
C2211       C  0.87965851  0.08236436  0.36245552     1.02720
O2212       O  0.85978136  0.08716729  0.38230361    -0.77760
O2213       O  0.82340986  0.12127185  0.42122248    -0.77940
C2214       C  0.83718612  0.13138278  0.44396145     1.02670
O2215       O  0.81337091  0.18061834  0.40722560    -0.85270
O2216       O  0.85805609  0.21233108  0.37629770    -0.82330
C2217       C  0.88014522  0.21606597  0.35876388     0.98210
O2218       O  0.89523004  0.19350968  0.34997982    -0.82360
O2219       O  0.86208487  0.15265929  0.31541660    -0.84960
C2220       C  0.84301340  0.13218503  0.31047319     1.02680
O2221       O  0.83254528  0.11678013  0.33229888    -0.77780
O2222       O  0.79749583  0.15115188  0.37118500    -0.77930
C2223       C  0.79211514  0.17070823  0.39096620     1.02650
Cr2224     Cr  0.85842636  0.17849723  0.40595126     1.93740
Cr2225     Cr  0.88946573  0.14898773  0.35105041     1.93210
Cr2226     Cr  0.83092368  0.12158279  0.37689118     1.39100
O2227       O  0.85956485  0.14975524  0.37797358    -1.23020
C2228       C  0.92222060  0.27059528  0.18601674     0.03210
C2229       C  0.91640052  0.24548606  0.16845072    -0.12940
C2230       C  0.89092910  0.24437238  0.14994679     0.00710
C2231       C  0.87611315  0.27179763  0.14258744    -0.11470
C2232       C  0.88554770  0.29899302  0.15642513     0.03200
C2233       C  0.90720297  0.29740343  0.17940755    -0.10890
H2234       H  0.92940381  0.22529127  0.17285679     0.08800
H2235       H  0.85797834  0.27201398  0.12637705     0.06320
H2236       H  0.91153224  0.31702180  0.19308029     0.06170
C2237       C  0.73413802  0.33309612  0.06411266     0.03210
C2238       C  0.70862977  0.35030488  0.07016738    -0.12940
C2239       C  0.70709361  0.36875955  0.09560326     0.00710
C2240       C  0.73444360  0.37721359  0.10965119    -0.11470
C2241       C  0.76196184  0.36412958  0.09974604     0.03200
C2242       C  0.76081070  0.34037654  0.07901154    -0.10890
H2243       H  0.68871752  0.34670795  0.05669052     0.08800
H2244       H  0.73438630  0.39389925  0.12731238     0.06320
H2245       H  0.78090339  0.32718396  0.07510278     0.06170
O2246       O  0.85575668  0.33393998  0.12719585    -0.85270
O2247       O  0.81468358  0.36616959  0.09258146    -0.82310
C2248       C  0.79244633  0.37530237  0.10805738     0.98190
O2249       O  0.79626531  0.39487602  0.12812401    -0.82350
O2250       O  0.82729043  0.42973309  0.16935719    -0.84990
C2251       C  0.83598134  0.41418791  0.19166654     1.02720
O2252       O  0.85497235  0.39341217  0.18795581    -0.77760
O2253       O  0.89026604  0.35186908  0.15723194    -0.77940
C2254       C  0.87577928  0.32970434  0.14683779     1.02670
O2255       O  0.90400159  0.36394821  0.09785020    -0.85270
O2256       O  0.86294718  0.39713273  0.06321405    -0.82330
C2257       C  0.84232461  0.41611706  0.05831855     0.98210
O2258       O  0.82633435  0.42551054  0.08005474    -0.82360
O2259       O  0.85915524  0.45872232  0.12195168    -0.85040
C2260       C  0.87760192  0.46313736  0.14303006     1.02680
O2261       O  0.88678167  0.44117118  0.15892296    -0.77780
O2262       O  0.92139971  0.39902619  0.12752260    -0.77930
C2263       C  0.92609103  0.37823999  0.10883453     1.02650
Cr2264     Cr  0.85931071  0.36792739  0.09769815     1.93740
Cr2265     Cr  0.82983973  0.42465394  0.12487978     1.93210
Cr2266     Cr  0.88582017  0.39644857  0.15526104     1.39100
O2267       O  0.85848289  0.39641807  0.12583470    -1.23020
C2268       C  0.79431050  0.45920332  0.25000109     0.03210
C2269       C  0.80171508  0.44454557  0.22322432    -0.12940
C2270       C  0.82520035  0.42330098  0.22204218     0.00710
C2271       C  0.83849670  0.41352037  0.24942131    -0.11470
C2272       C  0.83034215  0.42781068  0.27672041     0.03200
C2273       C  0.81163264  0.45319647  0.27539112    -0.10890
H2274       H  0.78851033  0.44882748  0.20323779     0.08800
H2275       H  0.85503607  0.39559876  0.24942610     0.06320
H2276       H  0.80736408  0.46621522  0.29550019     0.06170
C2277       C  0.91974934  0.27181934  0.30967931     0.03210
C2278       C  0.91472944  0.24713352  0.32837034    -0.12940
C2279       C  0.88989363  0.24639051  0.34791064     0.00710
C2280       C  0.87556123  0.27396267  0.35513671    -0.11470
C2281       C  0.88502595  0.30098498  0.34054819     0.03200
C2282       C  0.90571474  0.29909074  0.31657362    -0.10890
H2283       H  0.92780323  0.22694042  0.32429974     0.08800
H2284       H  0.85802427  0.27448366  0.37215805     0.06320
H2285       H  0.91015651  0.31874935  0.30268168     0.06170
C2286       C  0.73156427  0.33301130  0.43259924     0.03210
C2287       C  0.70641171  0.35079031  0.42695104    -0.12940
C2288       C  0.70530289  0.37017323  0.40192896     0.00710
C2289       C  0.73289527  0.37821475  0.38759178    -0.11470
C2290       C  0.76011357  0.36402061  0.39691503     0.03200
C2291       C  0.75832858  0.33982416  0.41738155    -0.10890
H2292       H  0.68642081  0.34693942  0.44048875     0.08800
H2293       H  0.73327274  0.39546235  0.37025432     0.06320
H2294       H  0.77803838  0.32598122  0.42100870     0.06170
O2295       O  0.82367970  0.42296206  0.41918961    -0.85270
O2296       O  0.85666306  0.45958457  0.37901771    -0.82310
C2297       C  0.87545323  0.46515163  0.35830374     0.98190
O2298       O  0.88693146  0.44355225  0.34350036    -0.82350
O2299       O  0.92041372  0.40048000  0.37527866    -0.84990
C2300       C  0.92469918  0.37841843  0.39274646     1.02720
O2301       O  0.90243470  0.36273216  0.40169688    -0.77760
O2302       O  0.85980684  0.39402448  0.43632300    -0.77940
C2303       C  0.83852814  0.41223159  0.44123220     1.02670
O2304       O  0.79572068  0.39454110  0.36901833    -0.85270
O2305       O  0.82860399  0.43123803  0.32979802    -0.82330
C2306       C  0.83962995  0.41757202  0.30729949     0.98210
O2307       O  0.85843047  0.39670404  0.31124363    -0.82360
O2308       O  0.89193875  0.35381987  0.34226525    -0.84960
C2309       C  0.87607268  0.33152671  0.35076889     1.02680
O2310       O  0.85491697  0.33520582  0.36939549    -0.77780
O2311       O  0.81277566  0.36490600  0.40455942    -0.77930
C2312       C  0.79102719  0.37467158  0.38886551     1.02650
Cr2313     Cr  0.82875350  0.42454624  0.37431559     1.93740
Cr2314     Cr  0.88687466  0.39856002  0.34563892     1.93210
Cr2315     Cr  0.85760691  0.36690322  0.40061041     1.39100
O2316       O  0.85790896  0.39686168  0.37366326    -1.23020
C2317       C  0.67088181  0.45554183  0.24955846     0.03210
C2318       C  0.65237952  0.45071279  0.27433303    -0.12940
C2319       C  0.63364608  0.42532954  0.27605250     0.00710
C2320       C  0.62568291  0.41093893  0.24862596    -0.11470
C2321       C  0.63969263  0.42053230  0.22116452     0.03200
C2322       C  0.66399735  0.44085460  0.22278406    -0.10890
H2323       H  0.65578211  0.46476155  0.29386479     0.08800
H2324       H  0.60874246  0.39339412  0.24855623     0.06320
H2325       H  0.67783909  0.44501593  0.20305006     0.06170
C2326       C  0.54829160  0.27507376  0.31269444     0.03210
C2327       C  0.56347762  0.24834420  0.31929250    -0.12940
C2328       C  0.58450007  0.24655361  0.34285043     0.00710
C2329       C  0.59382205  0.27380481  0.35689361    -0.11470
C2330       C  0.57922588  0.30137391  0.34922591     0.03200
C2331       C  0.55402684  0.30017564  0.33030711    -0.10890
H2332       H  0.55942604  0.22873633  0.30553311     0.08800
H2333       H  0.61147498  0.27348380  0.37362378     0.06320
H2334       H  0.54065977  0.32018200  0.32624088     0.06170
O2335       O  0.60551005  0.39540369  0.31269115    -0.85270
O2336       O  0.57337274  0.35441574  0.34897170    -0.82310
C2337       C  0.58852035  0.33225666  0.35903623     0.98190
O2338       O  0.60995368  0.33688697  0.37701820    -0.82350
O2339       O  0.65243684  0.37118488  0.40845884    -0.84990
C2340       C  0.67457888  0.38054398  0.39283715     1.02720
O2341       O  0.67005955  0.39836883  0.37111925    -0.77760
O2342       O  0.63589130  0.43055057  0.32893434    -0.77940
C2343       C  0.62442146  0.41599640  0.30727469     1.02670
O2344       O  0.57724645  0.44388187  0.34239199    -0.85270
O2345       O  0.54512270  0.40353353  0.37890416    -0.82330
C2346       C  0.54087538  0.38307512  0.39829382     0.98210
O2347       O  0.56296128  0.36754479  0.40753689    -0.82360
O2348       O  0.60500748  0.40261239  0.43727547    -0.84960
C2349       C  0.62589807  0.42147464  0.44081485     1.02680
O2350       O  0.64138539  0.43043850  0.41841315    -0.77780
O2351       O  0.60752724  0.46220943  0.37641343    -0.77930
C2352       C  0.58841462  0.46630882  0.35594031     1.02650
Cr2353     Cr  0.57792988  0.39926314  0.34824966     1.93740
Cr2354     Cr  0.60766224  0.37202527  0.40491251     1.93210
Cr2355     Cr  0.63613087  0.42777698  0.37380308     1.39100
O2356       O  0.60738314  0.39958003  0.37547465    -1.23020
C2357       C  0.67425688  0.08830141  0.25085750     0.03210
C2358       C  0.66405162  0.10000724  0.27794295    -0.12940
C2359       C  0.63947553  0.11991594  0.27872693     0.00710
C2360       C  0.62666124  0.12974763  0.25107216    -0.11470
C2361       C  0.63701614  0.11714947  0.22358859     0.03200
C2362       C  0.65813359  0.09377154  0.22474762    -0.10890
H2363       H  0.67684873  0.09536462  0.29818296     0.08800
H2364       H  0.60898057  0.14654848  0.25096395     0.06320
H2365       H  0.66658060  0.08370565  0.20418091     0.06170
O2366       O  0.63781055  0.11756771  0.42032358    -0.85270
O2367       O  0.60291496  0.08617692  0.37928823    -0.82310
C2368       C  0.58413975  0.08221540  0.35846639     0.98190
O2369       O  0.57603819  0.10423848  0.34210492    -0.82350
O2370       O  0.54476903  0.14807208  0.37428851    -0.84990
C2371       C  0.54112095  0.16929413  0.39268152     1.02720
O2372       O  0.56381589  0.18342875  0.40261709    -0.77760
O2373       O  0.60354907  0.14865442  0.43724641    -0.77940
C2374       C  0.62327108  0.12875152  0.44215565     1.02670
O2375       O  0.67048490  0.14510838  0.37283026    -0.85270
O2376       O  0.63628221  0.11282652  0.33123414    -0.82330
C2377       C  0.62813835  0.12871869  0.30891696     0.98210
O2378       O  0.60987260  0.15016515  0.31249291    -0.82360
O2379       O  0.57724793  0.19383883  0.34333099    -0.84960
C2380       C  0.59305233  0.21550026  0.35297159     1.02680
O2381       O  0.61330159  0.21053204  0.37223928    -0.77780
O2382       O  0.65297679  0.17591997  0.40698010    -0.77930
C2383       C  0.67515702  0.16423345  0.39318911     1.02650
Cr2384     Cr  0.63434863  0.11812091  0.37573930     1.93740
Cr2385     Cr  0.57954486  0.14897084  0.34564466     1.93210
Cr2386     Cr  0.60833017  0.17700722  0.40223422     1.39100
O2387       O  0.60745127  0.14808056  0.37453791    -1.23020
C2388       C  0.54931014  0.27417128  0.18991675     0.03210
C2389       C  0.56384306  0.24702174  0.18354698    -0.12940
C2390       C  0.58474203  0.24496087  0.15976671     0.00710
C2391       C  0.59443776  0.27196383  0.14519846    -0.11470
C2392       C  0.57991170  0.29956113  0.15214768     0.03200
C2393       C  0.55454041  0.29867913  0.17105150    -0.10890
H2394       H  0.55937179  0.22742379  0.19750295     0.08800
H2395       H  0.61221601  0.27140051  0.12843595     0.06320
H2396       H  0.54082175  0.31859996  0.17415597     0.06170
O2397       O  0.56434265  0.36561027  0.09273892    -0.85270
O2398       O  0.60736877  0.39816748  0.06062354    -0.82310
C2399       C  0.62860087  0.41658459  0.05660520     0.98190
O2400       O  0.64272036  0.42692658  0.07903266    -0.82350
O2401       O  0.60831574  0.45946896  0.12043494    -0.84990
C2402       C  0.58924490  0.46368926  0.14111087     1.02720
O2403       O  0.58005477  0.44159152  0.15684508    -0.77760
O2404       O  0.54721301  0.40159981  0.12177223    -0.77940
C2405       C  0.54258882  0.38151745  0.10234275     1.02670
O2406       O  0.61119209  0.33432205  0.12356500    -0.85270
O2407       O  0.65408607  0.36747756  0.09097170    -0.82330
C2408       C  0.67628189  0.37805275  0.10541912     0.98210
O2409       O  0.67186033  0.39651470  0.12642310    -0.82360
O2410       O  0.63859395  0.42897366  0.16853881    -0.84960
C2411       C  0.62908915  0.41273502  0.19024469     1.02680
O2412       O  0.60973599  0.39246360  0.18546911    -0.77780
O2413       O  0.57499115  0.35249053  0.15156905    -0.77930
C2414       C  0.58969108  0.33011774  0.14174239     1.02650
Cr2415     Cr  0.60927083  0.36889317  0.09463983     1.93740
Cr2416     Cr  0.63772977  0.42550208  0.12361650     1.93210
Cr2417     Cr  0.58059633  0.39700965  0.15143514     1.39100
O2418       O  0.60929180  0.39706293  0.12321821    -1.23020
O2419       O  0.54688511  0.14579142  0.12586489    -0.85270
O2420       O  0.57966808  0.10247318  0.15819073    -0.82310
C2421       C  0.59033591  0.08057167  0.14329855     0.98190
O2422       O  0.60854105  0.08559927  0.12203481    -0.82350
O2423       O  0.64135803  0.12067025  0.08102358    -0.84990
C2424       C  0.62706762  0.13249683  0.05918652     1.02720
O2425       O  0.60624299  0.15111852  0.06435449    -0.77760
O2426       O  0.56517041  0.18352002  0.09963513    -0.77940
C2427       C  0.54276142  0.16794301  0.10846664     1.02670
O2428       O  0.57674860  0.19227880  0.15820732    -0.85270
O2429       O  0.60952419  0.14881228  0.18922727    -0.82330
C2430       C  0.62784877  0.12749448  0.19304289     0.98210
O2431       O  0.63839438  0.11347763  0.17049190    -0.82360
O2432       O  0.67219159  0.14794509  0.12956162    -0.84960
C2433       C  0.67685830  0.16677748  0.10873228     1.02680
O2434       O  0.65466990  0.17825687  0.09488705    -0.77780
O2435       O  0.61420652  0.20984467  0.13102045    -0.77930
C2436       C  0.59317126  0.21417066  0.14965329     1.02650
Cr2437     Cr  0.58068526  0.14737587  0.15527536     1.93740
Cr2438     Cr  0.63756997  0.11953353  0.12585842     1.93210
Cr2439     Cr  0.60994681  0.17808330  0.09994443     1.39100
O2440       O  0.60936113  0.14819987  0.12695217    -1.23020
C2441       C  0.54154131  0.30567026  0.26682572    -0.21230
C2442       C  0.53392544  0.27941139  0.28287900    -0.09270
C2443       C  0.52063915  0.25541878  0.26716621     0.29590
C2444       C  0.52143284  0.25536135  0.23567094    -0.21230
C2445       C  0.53546218  0.27917327  0.21991538    -0.09280
C2446       C  0.54293619  0.30555036  0.23583237     0.29600
F2447       F  0.55684661  0.32948196  0.22258295    -0.19800
H2448       H  0.55140393  0.32500252  0.27778670     0.17960
H2449       H  0.51388962  0.23546920  0.22386170     0.17970
F2450       F  0.50975292  0.23093045  0.28208486    -0.19790
C2451       C  0.74811272  0.46477022  0.28041293    -0.21230
C2452       C  0.76393643  0.47266470  0.25407961    -0.09270
C2453       C  0.74771066  0.48527499  0.22990926     0.29590
C2454       C  0.71620340  0.48360371  0.22987932    -0.21230
C2455       C  0.70090667  0.46948448  0.25394736    -0.09280
C2456       C  0.71716049  0.46252772  0.28032942     0.29600
F2457       F  0.70439363  0.44845858  0.30445158    -0.19800
H2458       H  0.75932731  0.45538357  0.29991356     0.17960
H2459       H  0.70409401  0.49069717  0.20993047     0.17970
F2460       F  0.76221247  0.49650708  0.20532248    -0.19790
C2461       C  0.94783947  0.28965981  0.26366696    -0.21230
C2462       C  0.93230804  0.26670684  0.27925499    -0.09270
C2463       C  0.92276454  0.24108539  0.26326755     0.29590
C2464       C  0.92499114  0.24054677  0.23237352    -0.21230
C2465       C  0.93514874  0.26592711  0.21633641    -0.09280
C2466       C  0.94927276  0.28933182  0.23218521     0.29600
F2467       F  0.96174767  0.31307014  0.21729537    -0.19800
H2468       H  0.95637847  0.30907821  0.27558273     0.17960
H2469       H  0.91397069  0.22194152  0.22123664     0.17970
F2470       F  0.90640647  0.21864320  0.27637115    -0.19790
C2471       C  0.75351938  0.10276499  0.22919272    -0.21230
C2472       C  0.76927652  0.08239967  0.24740111    -0.09270
C2473       C  0.75350495  0.06102908  0.26482711     0.29590
C2474       C  0.72191802  0.06112178  0.26468572    -0.21230
C2475       C  0.70650563  0.08273204  0.24738459    -0.09280
C2476       C  0.72268716  0.10336337  0.22947647     0.29600
F2477       F  0.70883848  0.12634883  0.21462165    -0.19800
H2478       H  0.76515825  0.12029241  0.21656713     0.17960
H2479       H  0.70957782  0.04549043  0.27897957     0.17970
F2480       F  0.76852915  0.04133335  0.28277082    -0.19790
C2481       C  0.75126185  0.25593262  0.46077991    -0.21230
C2482       C  0.72666991  0.24040942  0.44835932    -0.09270
C2483       C  0.70004377  0.25670184  0.44227804     0.29590
C2484       C  0.70052448  0.28776227  0.44247448    -0.21230
C2485       C  0.72748634  0.30338569  0.44779384    -0.09280
C2486       C  0.75187813  0.28739470  0.46020627     0.29600
F2487       F  0.77739508  0.30181775  0.46866039    -0.19800
H2488       H  0.77136656  0.24389737  0.46761039     0.17960
H2489       H  0.68077751  0.29886204  0.43349880     0.17970
F2490       F  0.67502001  0.24368096  0.43066087    -0.19790
C2491       C  0.75463192  0.25578410  0.03772972    -0.21230
C2492       C  0.72965321  0.24036136  0.04996105    -0.09270
C2493       C  0.70282686  0.25678826  0.05487127     0.29590
C2494       C  0.70335020  0.28782835  0.05390308    -0.21230
C2495       C  0.73052158  0.30343040  0.04912790    -0.09280
C2496       C  0.75527919  0.28726638  0.03761768     0.29600
F2497       F  0.78101446  0.30153867  0.02914052    -0.19800
H2498       H  0.77489753  0.24369899  0.03143550     0.17960
H2499       H  0.68318604  0.29891392  0.06196922     0.17970
F2500       F  0.67727211  0.24407058  0.06604256    -0.19790
C2501       C  0.99646672  0.04335134  0.28836807    -0.21230
C2502       C  0.51193051  0.01884730  0.30136653    -0.09270
C2503       C  0.99552188  0.99232037  0.30796783     0.29590
C2504       C  0.96448595  0.99269051  0.30723771    -0.21230
C2505       C  0.94884750  0.01950574  0.30113505    -0.09280
C2506       C  0.96492143  0.04377643  0.28829658     0.29600
F2507       F  0.95039765  0.06887603  0.27853320    -0.19800
H2508       H  0.50857137  0.06337426  0.28121156     0.17960
H2509       H  0.95330580  0.47300724  0.31648539     0.17970
F2510       F  0.50832503  0.46748836  0.32049723    -0.19790
C2511       C  0.96543094  0.04787524  0.17632896    -0.21230
C2512       C  0.95006675  0.02707773  0.19462219    -0.09270
C2513       C  0.96647928  0.00725963  0.21314643     0.29590
C2514       C  0.99802175  0.00691052  0.21131663    -0.21230
C2515       C  0.51286278  0.02616262  0.19084863    -0.09280
C2516       C  0.99618437  0.04704993  0.17384419     0.29600
F2517       F  0.50910391  0.06420875  0.15183275    -0.19800
H2518       H  0.95352762  0.06269366  0.16095171     0.17960
H2519       H  0.51066183  0.99059315  0.22438843     0.17970
F2520       F  0.95202267  0.98720117  0.23130613    -0.19790
C2521       C  0.96640515  0.23819107  0.48567698    -0.21230
C2522       C  0.99051141  0.22470579  0.47005988    -0.09270
C2523       C  0.51715764  0.21811947  0.48608976     0.29590
C2524       C  0.51715944  0.21925387  0.01709857    -0.21230
C2525       C  0.99052053  0.22558888  0.03298984    -0.09280
C2526       C  0.96634535  0.23864379  0.01717179     0.29600
F2527       F  0.94154005  0.24875187  0.03196411    -0.19800
H2528       H  0.94635545  0.24536510  0.47379808     0.17960
H2529       H  0.53678494  0.20992640  0.02811848     0.17970
F2530       F  0.54159680  0.20514033  0.47303035    -0.19790
C2531       C  0.50205718  0.31053890  0.01655701    -0.21230
C2532       C  0.97790590  0.32391827  0.03219242    -0.09270
C2533       C  0.95130952  0.33063778  0.01617079     0.29590
C2534       C  0.95130227  0.32952720  0.48517799    -0.21230
C2535       C  0.97782306  0.32286895  0.46920693    -0.09280
C2536       C  0.50208185  0.30998389  0.48505373     0.29600
F2537       F  0.52680451  0.29965231  0.47028187    -0.19800
H2538       H  0.52210600  0.30336648  0.02844262     0.17960
H2539       H  0.93167139  0.33890631  0.47421571     0.17970
F2540       F  0.92689123  0.34362202  0.02927075    -0.19790
C2541       C  0.79451460  0.00522579  0.46952168    -0.21230
C2542       C  0.78587073  0.48916482  0.99527238    -0.09270
C2543       C  0.77163792  0.00463248  0.01898069     0.29590
C2544       C  0.77144639  0.03617883  0.01897000    -0.21230
C2545       C  0.78550904  0.05232184  0.99541409    -0.09280
C2546       C  0.79502664  0.03622447  0.46959658     0.29600
F2547       F  0.80960463  0.04971433  0.44617777    -0.19800
H2548       H  0.80548909  0.49441422  0.45061822     0.17960
H2549       H  0.76275242  0.04783674  0.03852068     0.17970
F2550       F  0.76030032  0.48947343  0.04312513    -0.19790
C2551       C  0.66221636  0.04199749  0.02785843    -0.21230
C2552       C  0.67870790  0.05812047  0.50617520    -0.09270
C2553       C  0.69705994  0.04253968  0.48561631     0.29590
C2554       C  0.69624903  0.01100479  0.48504667    -0.21230
C2555       C  0.67697279  0.49530378  0.00483218    -0.09280
C2556       C  0.66064656  0.01118876  0.02683579     0.29600
F2557       F  0.63968838  0.49754472  0.04472065    -0.19800
H2558       H  0.64714143  0.05328323  0.04342610     0.17960
H2559       H  0.70891530  0.49902686  0.46797452     0.17970
F2560       F  0.71382295  0.05777882  0.46492632    -0.19790
C2561       C  0.66853864  0.46380408  0.49981000     0.03210
C2562       C  0.66348702  0.44594596  0.52502316    -0.12940
C2563       C  0.63885871  0.42625795  0.52605515     0.00710
C2564       C  0.62516751  0.41792667  0.99852260    -0.11470
C2565       C  0.63491109  0.43181563  0.97119455     0.03200
C2566       C  0.65543432  0.45586837  0.97260638    -0.10890
H2567       H  0.67520488  0.45204156  0.54547523     0.08800
H2568       H  0.60769100  0.40090741  0.99832366     0.06320
H2569       H  0.65997597  0.46956648  0.95280990     0.06170
C2570       C  0.79717731  0.08306817  0.50011669     0.03210
C2571       C  0.81050972  0.09091375  0.52744851    -0.12940
C2572       C  0.83073017  0.11522926  0.52903633     0.00710
C2573       C  0.84049687  0.12922341  0.50183777    -0.11470
C2574       C  0.82669150  0.12136578  0.97431122     0.03200
C2575       C  0.80199651  0.10174655  0.97519770    -0.10890
H2576       H  0.80612747  0.07741331  0.54738204     0.08800
H2577       H  0.85788870  0.14632481  0.50216641     0.06320
H2578       H  0.78913655  0.09749635  0.95499920     0.06170
C2579       C  0.98268112  0.33800139  0.56200900     0.03210
C2580       C  0.50967215  0.35278869  0.56831903    -0.12940
C2581       C  0.51166701  0.37342916  0.59213414     0.00710
C2582       C  0.98452239  0.38305071  0.60641130    -0.11470
C2583       C  0.95694881  0.36854378  0.59919969     0.03200
C2584       C  0.95812783  0.34305382  0.58074596    -0.10890
H2585       H  0.52927549  0.34853801  0.55438258     0.08800
H2586       H  0.98494376  0.40076469  0.62303419     0.06320
H2587       H  0.93838822  0.32903505  0.57791960     0.06170
C2588       C  0.98554585  0.21024105  0.94043410     0.03210
C2589       C  0.95833015  0.19560709  0.93439043    -0.12940
C2590       C  0.95616904  0.17445978  0.91106637     0.00710
C2591       C  0.98309586  0.16474454  0.89658692    -0.11470
C2592       C  0.51073334  0.17929437  0.90316073     0.03200
C2593       C  0.51004025  0.20473360  0.92166401    -0.10890
H2594       H  0.93873765  0.20020829  0.94822542     0.08800
H2595       H  0.98244957  0.14685991  0.88014985     0.06320
H2596       H  0.53000574  0.21847279  0.92423738     0.06170
C2597       C  0.79894806  0.45851898  0.49920189     0.03210
C2598       C  0.81347638  0.45082086  0.52592181    -0.12940
C2599       C  0.83391983  0.42662363  0.52736542     0.00710
C2600       C  0.84326865  0.41293543  0.49984659    -0.11470
C2601       C  0.82921432  0.42172165  0.97231247     0.03200
C2602       C  0.80459744  0.44146760  0.97376191    -0.10890
H2603       H  0.80950523  0.46434228  0.54574676     0.08800
H2604       H  0.86059843  0.39578127  0.49991624     0.06320
H2605       H  0.79168654  0.44656470  0.95373787     0.06170
C2606       C  0.66913356  0.08941308  0.00129546     0.03210
C2607       C  0.66315542  0.10648898  0.52657772    -0.12940
C2608       C  0.63725404  0.12452552  0.52806873     0.00710
C2609       C  0.62272758  0.13258468  0.50059141    -0.11470
C2610       C  0.63282244  0.11943402  0.97308151     0.03200
C2611       C  0.65481000  0.09661585  0.97450084    -0.10890
H2612       H  0.67560167  0.10078051  0.54676952     0.08800
H2613       H  0.60423224  0.14847764  0.50061075     0.06320
H2614       H  0.65974659  0.08301419  0.95491087     0.06170
C2615       C  0.98188963  0.33769919  0.93937308     0.03210
C2616       C  0.50867448  0.35279692  0.93239747    -0.12940
C2617       C  0.51015682  0.37412580  0.90886558     0.00710
C2618       C  0.98283036  0.38368303  0.89515150    -0.11470
C2619       C  0.95536492  0.36909109  0.90299595     0.03200
C2620       C  0.95658122  0.34376404  0.92197738    -0.10890
H2621       H  0.52852479  0.34853171  0.94580975     0.08800
H2622       H  0.98302830  0.40148342  0.87837633     0.06320
H2623       H  0.93652792  0.33041923  0.92602170     0.06170
C2624       C  0.98605349  0.20978370  0.56226451     0.03210
C2625       C  0.51107503  0.20339200  0.57995892    -0.12940
C2626       C  0.51216126  0.17747942  0.59815375     0.00710
C2627       C  0.98469781  0.16231081  0.60487920    -0.11470
C2628       C  0.95757153  0.17193552  0.59078962     0.03200
C2629       C  0.95933006  0.19410704  0.56808265    -0.10890
H2630       H  0.53109000  0.21699858  0.57668482     0.08800
H2631       H  0.98434681  0.14395551  0.62104239     0.06320
H2632       H  0.93972904  0.19863316  0.55438463     0.06170
C2633       C  0.91825957  0.02230088  0.68713265     0.03210
C2634       C  0.91030058  0.49516203  0.67397991    -0.12940
C2635       C  0.88753353  0.49380986  0.65209288     0.00710
C2636       C  0.87506809  0.02133548  0.64109329    -0.11470
C2637       C  0.88355245  0.04896136  0.65474970     0.03200
C2638       C  0.90134225  0.04776769  0.68072912    -0.10890
H2639       H  0.92348297  0.47530013  0.67933946     0.08800
H2640       H  0.85935499  0.02125262  0.62252917     0.06320
H2641       H  0.90743207  0.06826208  0.69238293     0.06170
C2642       C  0.54201346  0.02313568  0.81526238     0.03210
C2643       C  0.54918604  0.05014869  0.82960867    -0.12940
C2644       C  0.57303369  0.05168527  0.85031190     0.00710
C2645       C  0.58666411  0.02437843  0.86014739    -0.11470
C2646       C  0.57882485  0.49695756  0.84594398     0.03200
C2647       C  0.56019370  0.49822558  0.82061181    -0.10890
H2648       H  0.53586269  0.07008752  0.82512985     0.08800
H2649       H  0.60338935  0.02455679  0.87780415     0.06320
H2650       H  0.55701925  0.47841561  0.80690351     0.06170
C2651       C  0.91928790  0.02365327  0.81644477     0.03210
C2652       C  0.91303681  0.05008356  0.83208193    -0.12940
C2653       C  0.88976782  0.05142899  0.85372291     0.00710
C2654       C  0.87635336  0.02383224  0.86364740    -0.11470
C2655       C  0.88407190  0.49651368  0.84878095     0.03200
C2656       C  0.90167282  0.49845758  0.82252006    -0.10890
H2657       H  0.92674592  0.06981388  0.82778841     0.08800
H2658       H  0.86020320  0.02368636  0.88198784     0.06320
H2659       H  0.90493862  0.47882826  0.80853628     0.06170
C2660       C  0.54456486  0.02209970  0.68250786     0.03210
C2661       C  0.56139253  0.04786547  0.67735747    -0.12940
C2662       C  0.58148976  0.04948148  0.65301836     0.00710
C2663       C  0.59124608  0.02201987  0.63969852    -0.11470
C2664       C  0.57819289  0.49423324  0.64953389     0.03200
C2665       C  0.55363636  0.49516226  0.66964941    -0.10890
H2666       H  0.55419164  0.06810878  0.68887940     0.08800
H2667       H  0.60864800  0.02222444  0.62253104     0.06320
H2668       H  0.54041782  0.47509036  0.67419746     0.06170
C2669       C  0.73382884  0.21081223  0.56539261     0.03210
C2670       C  0.76088660  0.20413310  0.57998192    -0.12940
C2671       C  0.76264393  0.18089958  0.60154516     0.00710
C2672       C  0.73533478  0.16780372  0.61240582    -0.11470
C2673       C  0.70772607  0.17541989  0.59816649     0.03200
C2674       C  0.70896246  0.19284663  0.57176164    -0.10890
H2675       H  0.78083129  0.21727987  0.57492136     0.08800
H2676       H  0.73564356  0.15170531  0.63081223     0.06320
H2677       H  0.68921108  0.19512363  0.55775060     0.06170
O2678       O  0.89592750  0.19127079  0.65015051    -0.85270
O2679       O  0.86380258  0.15098152  0.68708535    -0.82310
C2680       C  0.84441709  0.13095467  0.69280701     0.98190
O2681       O  0.83151442  0.11746864  0.67128195    -0.82350
O2682       O  0.79815455  0.15180479  0.63063180    -0.84990
C2683       C  0.79345181  0.16999951  0.60929612     1.02720
O2684       O  0.81500503  0.17767832  0.59202690    -0.77760
O2685       O  0.85914300  0.20974014  0.62284845    -0.77940
C2686       C  0.88101291  0.21373846  0.64041901     1.02670
O2687       O  0.92217433  0.14165958  0.61937161    -0.85270
O2688       O  0.88923044  0.10188754  0.65594731    -0.82330
C2689       C  0.87623154  0.07983185  0.64337035     0.98210
O2690       O  0.85683466  0.08460259  0.62328481    -0.82360
O2691       O  0.82363385  0.11812989  0.58186639    -0.84960
C2692       C  0.83960442  0.12597601  0.55934145     1.02680
O2693       O  0.86112962  0.14417984  0.56257840    -0.77780
O2694       O  0.90471113  0.17827935  0.59138829    -0.77930
C2695       C  0.92668765  0.16250979  0.60048792     1.02650
Cr2696     Cr  0.89012826  0.14656286  0.65065340     1.93740
Cr2697     Cr  0.83012410  0.12052726  0.62652317     1.93210
Cr2698     Cr  0.85992679  0.17496997  0.59475936     1.39100
O2699       O  0.86003058  0.14736982  0.62413114    -1.23020
C2700       C  0.73133821  0.21078766  0.93374180     0.03210
C2701       C  0.75838967  0.20466009  0.91885131    -0.12940
C2702       C  0.76082688  0.18079455  0.89837757     0.00710
C2703       C  0.73383955  0.16637449  0.88866529    -0.11470
C2704       C  0.70601795  0.17364315  0.90299250     0.03200
C2705       C  0.70689354  0.19209791  0.92849861    -0.10890
H2706       H  0.77783748  0.21871908  0.92299251     0.08800
H2707       H  0.73455266  0.14968350  0.87102204     0.06320
H2708       H  0.68707979  0.19471436  0.94253935     0.06170
C2709       C  0.80121676  0.08916057  0.75149794     0.03210
C2710       C  0.81764995  0.09534968  0.72568080    -0.12940
C2711       C  0.83671066  0.12053887  0.72413171     0.00710
C2712       C  0.84600425  0.13393152  0.75174913    -0.11470
C2713       C  0.83330127  0.12331377  0.77954152     0.03200
C2714       C  0.80982365  0.10204636  0.77840915    -0.10890
H2715       H  0.81053284  0.08392885  0.70541754     0.08800
H2716       H  0.86244483  0.15194733  0.75163093     0.06320
H2717       H  0.79650492  0.09688418  0.79831719     0.06170
O2718       O  0.85861299  0.14971913  0.94042852    -0.85270
O2719       O  0.90331660  0.18177152  0.90985161    -0.82310
C2720       C  0.92537705  0.16581007  0.90106835     0.98190
O2721       O  0.92129599  0.14510709  0.88221322    -0.82350
O2722       O  0.88999574  0.10425705  0.84707817    -0.84990
C2723       C  0.87965727  0.08238290  0.86246207     1.02720
O2724       O  0.85978390  0.08718946  0.88231379    -0.77760
O2725       O  0.82339946  0.12130986  0.92122399    -0.77940
C2726       C  0.83715557  0.13145083  0.94396259     1.02670
O2727       O  0.81336526  0.18064929  0.90720013    -0.85270
O2728       O  0.85805049  0.21235029  0.87627584    -0.82330
C2729       C  0.88014432  0.21608475  0.85875017     0.98210
O2730       O  0.89522749  0.19352747  0.84996519    -0.82360
O2731       O  0.86207824  0.15266787  0.81540775    -0.84960
C2732       C  0.84301173  0.13218758  0.81046797     1.02680
O2733       O  0.83254739  0.11678455  0.83229765    -0.77780
O2734       O  0.79749184  0.15116504  0.87117272    -0.77930
C2735       C  0.79210993  0.17072877  0.89094646     1.02650
Cr2736     Cr  0.85842001  0.17852674  0.90593504     1.93740
Cr2737     Cr  0.88946068  0.14900456  0.85104207     1.93210
Cr2738     Cr  0.83092189  0.12160071  0.87689076     1.39100
O2739       O  0.85956052  0.14977626  0.87796594    -1.23020
C2740       C  0.92220808  0.27055612  0.68602511     0.03210
C2741       C  0.91638077  0.24544382  0.66846495    -0.12940
C2742       C  0.89091703  0.24433522  0.64994807     0.00710
C2743       C  0.87610622  0.27176357  0.64258866    -0.11470
C2744       C  0.88554064  0.29895674  0.65643240     0.03200
C2745       C  0.90719389  0.29736449  0.67941461    -0.10890
H2746       H  0.92937882  0.22524703  0.67287693     0.08800
H2747       H  0.85797623  0.27198420  0.62637296     0.06320
H2748       H  0.91152472  0.31698265  0.69308708     0.06170
C2749       C  0.73414464  0.33309056  0.56411699     0.03210
C2750       C  0.70863791  0.35030224  0.57016994    -0.12940
C2751       C  0.70710150  0.36875577  0.59560699     0.00710
C2752       C  0.73445121  0.37720426  0.60965924    -0.11470
C2753       C  0.76196832  0.36411513  0.59975750     0.03200
C2754       C  0.76081568  0.34036450  0.57902074    -0.10890
H2755       H  0.68872634  0.34670697  0.55669150     0.08800
H2756       H  0.73439458  0.39388844  0.62732177     0.06320
H2757       H  0.78090607  0.32716761  0.57511386     0.06170
O2758       O  0.85575514  0.33390953  0.62721016    -0.85270
O2759       O  0.81469053  0.36614030  0.59259875    -0.82310
C2760       C  0.79245445  0.37528006  0.60807248     0.98190
O2761       O  0.79627669  0.39485458  0.62813786    -0.82350
O2762       O  0.82730763  0.42971536  0.66936279    -0.84990
C2763       C  0.83598938  0.41416811  0.69167366     1.02720
O2764       O  0.85497439  0.39338572  0.68796679    -0.77760
O2765       O  0.89026631  0.35183329  0.65724623    -0.77940
C2766       C  0.87577702  0.32967046  0.64685035     1.02670
O2767       O  0.90400993  0.36390934  0.59786552    -0.85270
O2768       O  0.86295568  0.39708821  0.56322118    -0.82330
C2769       C  0.84232328  0.41606076  0.55832528     0.98210
O2770       O  0.82634901  0.42546858  0.58006662    -0.82360
O2771       O  0.85917971  0.45868724  0.62195442    -0.85040
C2772       C  0.87762160  0.46310342  0.64303710     1.02680
O2773       O  0.88679561  0.44113810  0.65893484    -0.77780
O2774       O  0.92140802  0.39898740  0.62753896    -0.77930
C2775       C  0.92609920  0.37820271  0.60884934     1.02650
Cr2776     Cr  0.85931793  0.36789207  0.59771217     1.93740
Cr2777     Cr  0.82985650  0.42462598  0.62488825     1.93210
Cr2778     Cr  0.88582735  0.39641444  0.65527521     1.39100
O2779       O  0.85849366  0.39638575  0.62584653    -1.23020
C2780       C  0.79431635  0.45919826  0.74999473     0.03210
C2781       C  0.80172052  0.44453343  0.72322164    -0.12940
C2782       C  0.82520542  0.42328745  0.72204556     0.00710
C2783       C  0.83850010  0.41351275  0.74942674    -0.11470
C2784       C  0.83034563  0.42781067  0.77672118     0.03200
C2785       C  0.81163918  0.45319817  0.77538543    -0.10890
H2786       H  0.78851626  0.44881113  0.70323381     0.08800
H2787       H  0.85503824  0.39558995  0.74943657     0.06320
H2788       H  0.80737146  0.46622233  0.79549121     0.06170
C2789       C  0.91975366  0.27184112  0.80968614     0.03210
C2790       C  0.91474153  0.24715878  0.82838255    -0.12940
C2791       C  0.88989844  0.24641094  0.84791138     0.00710
C2792       C  0.87556265  0.27398088  0.85513921    -0.11470
C2793       C  0.88502815  0.30100530  0.84055615     0.03200
C2794       C  0.90571651  0.29911253  0.81657930    -0.10890
H2795       H  0.92781927  0.22696733  0.82431543     0.08800
H2796       H  0.85802210  0.27449827  0.87215699     0.06320
H2797       H  0.91015623  0.31877064  0.80268598     0.06170
C2798       C  0.73156277  0.33301205  0.93260044     0.03210
C2799       C  0.70640914  0.35078945  0.92695142    -0.12940
C2800       C  0.70530095  0.37017496  0.90193153     0.00710
C2801       C  0.73289409  0.37822040  0.88759803    -0.11470
C2802       C  0.76011326  0.36402920  0.89692364     0.03200
C2803       C  0.75832896  0.33983057  0.91738777    -0.10890
H2804       H  0.68641743  0.34693639  0.94048723     0.08800
H2805       H  0.73327155  0.39546973  0.87026226     0.06320
H2806       H  0.77804065  0.32599072  0.92101616     0.06170
O2807       O  0.82367275  0.42299046  0.91918619    -0.85270
O2808       O  0.85664672  0.45960477  0.87901088    -0.82310
C2809       C  0.87544275  0.46517076  0.85830242     0.98190
O2810       O  0.88692736  0.44357090  0.84350443    -0.82350
O2811       O  0.92041236  0.40050388  0.87528853    -0.84990
C2812       C  0.92469765  0.37844308  0.89275726     1.02720
O2813       O  0.90243277  0.36276018  0.90171098    -0.77760
O2814       O  0.85980911  0.39406873  0.93632691    -0.77940
C2815       C  0.83854033  0.41228987  0.94122946     1.02670
O2816       O  0.79571873  0.39454703  0.86902208    -0.85270
O2817       O  0.82859654  0.43124281  0.82979655    -0.82330
C2818       C  0.83962974  0.41757736  0.80730179     0.98210
O2819       O  0.85843448  0.39671468  0.81125053    -0.82360
O2820       O  0.89193963  0.35383913  0.84227847    -0.84960
C2821       C  0.87607498  0.33154566  0.85078361     1.02680
O2822       O  0.85492204  0.33522327  0.86941566    -0.77780
O2823       O  0.81277464  0.36493113  0.90457815    -0.77930
C2824       C  0.79102616  0.37468506  0.88887689     1.02650
Cr2825     Cr  0.82874497  0.42456017  0.87431368     1.93740
Cr2826     Cr  0.88687419  0.39857867  0.84564769     1.93210
Cr2827     Cr  0.85760660  0.36693073  0.90062485     1.39100
O2828       O  0.85790587  0.39688129  0.87366943    -1.23020
C2829       C  0.67088688  0.45553944  0.74955846     0.03210
C2830       C  0.65238534  0.45071044  0.77433378    -0.12940
C2831       C  0.63364934  0.42532888  0.77605298     0.00710
C2832       C  0.62568554  0.41093870  0.74862639    -0.11470
C2833       C  0.63969616  0.42053093  0.72116508     0.03200
C2834       C  0.66400148  0.44085223  0.72278440    -0.10890
H2835       H  0.65578873  0.46475893  0.79386554     0.08800
H2836       H  0.60874382  0.39339511  0.74855653     0.06320
H2837       H  0.67784317  0.44501264  0.70305021     0.06170
C2838       C  0.54829013  0.27507545  0.81269159     0.03210
C2839       C  0.56347623  0.24834597  0.81928972    -0.12940
C2840       C  0.58449845  0.24655535  0.84284777     0.00710
C2841       C  0.59382001  0.27380645  0.85689140    -0.11470
C2842       C  0.57922389  0.30137560  0.84922374     0.03200
C2843       C  0.55402533  0.30017747  0.83030420    -0.10890
H2844       H  0.55942491  0.22873811  0.80553024     0.08800
H2845       H  0.61147260  0.27348533  0.87362193     0.06320
H2846       H  0.54065853  0.32018394  0.82623764     0.06170
O2847       O  0.60550974  0.39540491  0.81269073    -0.85270
O2848       O  0.57337030  0.35441750  0.84897107    -0.82310
C2849       C  0.58851814  0.33225823  0.85903486     0.98190
O2850       O  0.60995165  0.33688829  0.87701672    -0.82350
O2851       O  0.65243429  0.37118569  0.90845947    -0.84990
C2852       C  0.67457689  0.38054550  0.89283894     1.02720
O2853       O  0.67005816  0.39837089  0.87112135    -0.77760
O2854       O  0.63589114  0.43055152  0.82893481    -0.77940
C2855       C  0.62442217  0.41599702  0.80727487     1.02670
O2856       O  0.57724585  0.44388340  0.84239001    -0.85270
O2857       O  0.54512234  0.40353719  0.87890377    -0.82330
C2858       C  0.54087416  0.38307950  0.89829400     0.98210
O2859       O  0.56295874  0.36754629  0.90753521    -0.82360
O2860       O  0.60500328  0.40261281  0.93727462    -0.84960
C2861       C  0.62589247  0.42147632  0.94081469     1.02680
O2862       O  0.64138100  0.43044024  0.91841384    -0.77780
O2863       O  0.60752483  0.46221094  0.87641279    -0.77930
C2864       C  0.58841281  0.46631033  0.85593914     1.02650
Cr2865     Cr  0.57792874  0.39926495  0.84824873     1.93740
Cr2866     Cr  0.60765966  0.37202617  0.90491160     1.93210
Cr2867     Cr  0.63612886  0.42777854  0.87380363     1.39100
O2868       O  0.60738149  0.39958132  0.87547407    -1.23020
C2869       C  0.67425233  0.08829631  0.75085923     0.03210
C2870       C  0.66404620  0.10000250  0.77794409    -0.12940
C2871       C  0.63947207  0.11991362  0.77872674     0.00710
C2872       C  0.62666036  0.12974660  0.75107122    -0.11470
C2873       C  0.63701595  0.11714771  0.72358818     0.03200
C2874       C  0.65813127  0.09376793  0.72474831    -0.10890
H2875       H  0.67684194  0.09535873  0.79818472     0.08800
H2876       H  0.60898126  0.14654909  0.75096202     0.06320
H2877       H  0.66657924  0.08370202  0.70418200     0.06170
O2878       O  0.63780754  0.11757123  0.92032345    -0.85270
O2879       O  0.60291154  0.08617887  0.87928911    -0.82310
C2880       C  0.58413651  0.08221709  0.85846714     0.98190
O2881       O  0.57603445  0.10424012  0.84210568    -0.82350
O2882       O  0.54476465  0.14807665  0.87428632    -0.84990
C2883       C  0.54111746  0.16929954  0.89267864     1.02720
O2884       O  0.56381326  0.18343227  0.90261497    -0.77760
O2885       O  0.60354562  0.14865784  0.93724551    -0.77940
C2886       C  0.62326742  0.12875489  0.94215531     1.02670
O2887       O  0.67048069  0.14511044  0.87282728    -0.85270
O2888       O  0.63627797  0.11282624  0.83123410    -0.82330
C2889       C  0.62813480  0.12871787  0.80891634     0.98210
O2890       O  0.60986979  0.15016506  0.81249160    -0.82360
O2891       O  0.57724615  0.19384062  0.84332809    -0.84960
C2892       C  0.59305053  0.21550198  0.85296889     1.02680
O2893       O  0.61329945  0.21053376  0.87223690    -0.77780
O2894       O  0.65297391  0.17592183  0.90697795    -0.77930
C2895       C  0.67515351  0.16423587  0.89318548     1.02650
Cr2896     Cr  0.63434499  0.11812278  0.87573886     1.93740
Cr2897     Cr  0.57954165  0.14897268  0.84564327     1.93210
Cr2898     Cr  0.60832730  0.17700971  0.90223248     1.39100
O2899       O  0.60744772  0.14808248  0.87453685    -1.23020
C2900       C  0.54931376  0.27416954  0.68991435     0.03210
C2901       C  0.56384548  0.24701930  0.68354465    -0.12940
C2902       C  0.58474489  0.24495766  0.65976472     0.00710
C2903       C  0.59444270  0.27196036  0.64519733    -0.11470
C2904       C  0.57991785  0.29955821  0.65214655     0.03200
C2905       C  0.55454561  0.29867704  0.67104919    -0.10890
H2906       H  0.55937284  0.22742140  0.69750024     0.08800
H2907       H  0.61222150  0.27139643  0.62843542     0.06320
H2908       H  0.54082716  0.31859813  0.67415273     0.06170
O2909       O  0.56435091  0.36560548  0.59273806    -0.85270
O2910       O  0.60737688  0.39816502  0.56062357    -0.82310
C2911       C  0.62860857  0.41658277  0.55660560     0.98190
O2912       O  0.64272727  0.42692520  0.57903337    -0.82350
O2913       O  0.60832071  0.45946684  0.62043562    -0.84990
C2914       C  0.58924884  0.46368633  0.64111091     1.02720
O2915       O  0.58005819  0.44158800  0.65684396    -0.77760
O2916       O  0.54721797  0.40159304  0.62177191    -0.77940
C2917       C  0.54259533  0.38150929  0.60234339     1.02670
O2918       O  0.61119987  0.33431902  0.62356491    -0.85270
O2919       O  0.65409417  0.36747597  0.59097284    -0.82330
C2920       C  0.67628956  0.37805100  0.60542099     0.98210
O2921       O  0.67186730  0.39651363  0.62642433    -0.82360
O2922       O  0.63859853  0.42897197  0.66853938    -0.84960
C2923       C  0.62909331  0.41273351  0.69024518     1.02680
O2924       O  0.60974074  0.39246175  0.68546939    -0.77780
O2925       O  0.57499906  0.35248729  0.65156928    -0.77930
C2926       C  0.58969865  0.33011462  0.64174212     1.02650
Cr2927     Cr  0.60927880  0.36889051  0.59463985     1.93740
Cr2928     Cr  0.63773556  0.42550031  0.62361720     1.93210
Cr2929     Cr  0.58060191  0.39700613  0.65143475     1.39100
O2930       O  0.60929810  0.39706037  0.62321826    -1.23020
O2931       O  0.54688820  0.14578460  0.62586486    -0.85270
O2932       O  0.57967099  0.10247001  0.65819298    -0.82310
C2933       C  0.59033735  0.08056843  0.64329997     0.98190
O2934       O  0.60854113  0.08559585  0.62203523    -0.82350
O2935       O  0.64135692  0.12066446  0.58102303    -0.84990
C2936       C  0.62706715  0.13249144  0.55918593     1.02720
O2937       O  0.60624252  0.15111325  0.56435349    -0.77760
O2938       O  0.56517023  0.18351468  0.59963477    -0.77940
C2939       C  0.54276267  0.16793547  0.60846642     1.02670
O2940       O  0.57674975  0.19227574  0.65820497    -0.85270
O2941       O  0.60952701  0.14881155  0.68922584    -0.82330
C2942       C  0.62785080  0.12749321  0.69304206     0.98210
O2943       O  0.63839631  0.11347555  0.67049140    -0.82360
O2944       O  0.67219316  0.14793974  0.62955720    -0.84960
C2945       C  0.67685941  0.16677015  0.60872595     1.02680
O2946       O  0.65467044  0.17825171  0.59488321    -0.77780
O2947       O  0.61420800  0.20984068  0.63101802    -0.77930
C2948       C  0.59317297  0.21416722  0.64965101     1.02650
Cr2949     Cr  0.58068753  0.14737259  0.65527501     1.93740
Cr2950     Cr  0.63757072  0.11952929  0.62585741     1.93210
Cr2951     Cr  0.60994722  0.17807877  0.59994265     1.39100
O2952       O  0.60936261  0.14819606  0.62695119    -1.23020
C2953       C  0.54154040  0.30567111  0.76682236    -0.21230
C2954       C  0.53392413  0.27941262  0.78287600    -0.09270
C2955       C  0.52063873  0.25541948  0.76716322     0.29590
C2956       C  0.52143444  0.25536090  0.73566799    -0.21230
C2957       C  0.53546466  0.27917231  0.71991244    -0.09280
C2958       C  0.54293740  0.30555008  0.73582908     0.29600
F2959       F  0.55684843  0.32948143  0.72257988    -0.19800
H2960       H  0.55140209  0.32500384  0.77778332     0.17960
H2961       H  0.51389188  0.23546836  0.72385902     0.17970
F2962       F  0.50975180  0.23093157  0.78208205    -0.19790
C2963       C  0.74811948  0.46476779  0.78040743    -0.21230
C2964       C  0.76394192  0.47265882  0.75407223    -0.09270
C2965       C  0.74771543  0.48526688  0.72990148     0.29590
C2966       C  0.71620799  0.48359875  0.72987460    -0.21230
C2967       C  0.70091188  0.46948272  0.75394511    -0.09280
C2968       C  0.71716707  0.46252756  0.78032663     0.29600
F2969       F  0.70440109  0.44846173  0.80445115    -0.19800
H2970       H  0.75933501  0.45538247  0.79990824     0.17960
H2971       H  0.70409769  0.49069122  0.70992594     0.17970
F2972       F  0.76221637  0.49649405  0.70531199    -0.19790
C2973       C  0.94783383  0.28966065  0.76365905    -0.21230
C2974       C  0.93230094  0.26671760  0.77925915    -0.09270
C2975       C  0.92275488  0.24108754  0.76328545     0.29590
C2976       C  0.92498605  0.24052851  0.73239230    -0.21230
C2977       C  0.93514597  0.26589846  0.71634177    -0.09280
C2978       C  0.94927164  0.28931164  0.73217784     0.29600
F2979       F  0.96174986  0.31303989  0.71727449    -0.19800
H2980       H  0.95637340  0.30908548  0.77556395     0.17960
H2981       H  0.91396482  0.22191789  0.72126506     0.17970
F2982       F  0.90639194  0.21865532  0.77640028    -0.19790
C2983       C  0.75351564  0.10276485  0.72920279    -0.21230
C2984       C  0.76927175  0.08239515  0.74740711    -0.09270
C2985       C  0.75349962  0.06102215  0.76482937     0.29590
C2986       C  0.72191270  0.06111522  0.76468683    -0.21230
C2987       C  0.70650127  0.08272820  0.74738821    -0.09280
C2988       C  0.72268355  0.10336310  0.72948497     0.29600
F2989       F  0.70883540  0.12635058  0.71463277    -0.19800
H2990       H  0.76515550  0.12029395  0.71658043     0.17960
H2991       H  0.70957174  0.04548146  0.77897737     0.17970
F2992       F  0.76852321  0.04132299  0.78276979    -0.19790
C2993       C  0.75125836  0.25593102  0.96077994    -0.21230
C2994       C  0.72666556  0.24040869  0.94836009    -0.09270
C2995       C  0.70003973  0.25670134  0.94228017     0.29590
C2996       C  0.70052222  0.28776180  0.94247389    -0.21230
C2997       C  0.72748500  0.30338469  0.94779231    -0.09280
C2998       C  0.75187625  0.28739300  0.96020498     0.29600
F2999       F  0.77739380  0.30181485  0.96865916    -0.19800
H3000       H  0.77136303  0.24389487  0.96760913     0.17960
H3001       H  0.68077533  0.29886141  0.93349803     0.17970
F3002       F  0.67501493  0.24367991  0.93066570    -0.19790
C3003       C  0.75463759  0.25577928  0.53773302    -0.21230
C3004       C  0.72965955  0.24035590  0.54996511    -0.09270
C3005       C  0.70283428  0.25678396  0.55488095     0.29590
C3006       C  0.70335693  0.28782390  0.55391061    -0.21230
C3007       C  0.73052715  0.30342577  0.54913152    -0.09280
C3008       C  0.75528429  0.28726170  0.53762029     0.29600
F3009       F  0.78101885  0.30153462  0.52914173    -0.19800
H3010       H  0.77490239  0.24369460  0.53143536     0.17960
H3011       H  0.68319391  0.29891037  0.56197892     0.17970
F3012       F  0.67728110  0.24406799  0.56605769    -0.19790
C3013       C  0.99646466  0.04335739  0.78836954    -0.21230
C3014       C  0.51192641  0.01885183  0.80136769    -0.09270
C3015       C  0.99551500  0.99232738  0.80797173     0.29590
C3016       C  0.96447894  0.99270214  0.80724576    -0.21230
C3017       C  0.94884363  0.01951917  0.80114265    -0.09280
C3018       C  0.96491947  0.04378721  0.78830197     0.29600
F3019       F  0.95039806  0.06888881  0.77854024    -0.19800
H3020       H  0.50857137  0.06337843  0.78121118     0.17960
H3021       H  0.95329663  0.47302114  0.81649582     0.17970
F3022       F  0.50831653  0.46749395  0.82050003    -0.19790
C3023       C  0.96543124  0.04786201  0.67634533    -0.21230
C3024       C  0.95007191  0.02705856  0.69463618    -0.09270
C3025       C  0.96648944  0.00724276  0.71315830     0.29590
C3026       C  0.99803183  0.00689946  0.71132598    -0.21230
C3027       C  0.51286797  0.02615547  0.69085805    -0.09280
C3028       C  0.99618473  0.04704270  0.67385827     0.29600
F3029       F  0.50909943  0.06420619  0.65184760    -0.19800
H3030       H  0.95352444  0.06268001  0.66097035     0.17960
H3031       H  0.51067573  0.99058282  0.72439504     0.17970
F3032       F  0.95203785  0.98718053  0.73131777    -0.19790
C3033       C  0.96641009  0.23820335  0.98567363    -0.21230
C3034       C  0.99051361  0.22471425  0.97005583    -0.09270
C3035       C  0.51715889  0.21812211  0.98608503     0.29590
C3036       C  0.51715676  0.21925068  0.51710347    -0.21230
C3037       C  0.99051568  0.22557932  0.53299380    -0.09280
C3038       C  0.96633904  0.23863078  0.51717523     0.29600
F3039       F  0.94153124  0.24873366  0.53196696    -0.19800
H3040       H  0.94636134  0.24538116  0.97379528     0.17960
H3041       H  0.53678363  0.20992700  0.52812400     0.17970
F3042       F  0.54159497  0.20513764  0.97302513    -0.19790
C3043       C  0.50206628  0.31052903  0.51655474    -0.21230
C3044       C  0.97791661  0.32390870  0.53219203    -0.09270
C3045       C  0.95132075  0.33063434  0.51617234     0.29590
C3046       C  0.95129326  0.32952936  0.98517636    -0.21230
C3047       C  0.97781650  0.32287584  0.96920707    -0.09280
C3048       C  0.50207489  0.30999260  0.98505593     0.29600
F3049       F  0.52679884  0.29966116  0.97028615    -0.19800
H3050       H  0.52211535  0.30335509  0.52843911     0.17960
H3051       H  0.93166126  0.33890469  0.97421310     0.17970
F3052       F  0.92690614  0.34362286  0.52927503    -0.19790
C3053       C  0.79463031  0.00545992  0.96953679    -0.21230
C3054       C  0.78572653  0.48895408  0.49526028    -0.09270
C3055       C  0.77156967  0.00446973  0.51898450     0.29590
C3056       C  0.77151574  0.03601499  0.51898847    -0.21230
C3057       C  0.78562956  0.05211177  0.49543467    -0.09280
C3058       C  0.79498346  0.03646250  0.96958778     0.29600
F3059       F  0.80949297  0.05000446  0.94615605    -0.19800
H3060       H  0.80566155  0.49469155  0.95066373     0.17960
H3061       H  0.76286989  0.04770798  0.53856097     0.17970
F3062       F  0.76019219  0.48934434  0.54313137    -0.19790
C3063       C  0.66219681  0.04199536  0.52784620    -0.21230
C3064       C  0.67870963  0.05812228  0.00617344    -0.09270
C3065       C  0.69704719  0.04254058  0.98560237     0.29590
C3066       C  0.69623632  0.01100583  0.98503471    -0.21230
C3067       C  0.67697290  0.49530250  0.50483156    -0.09280
C3068       C  0.66062908  0.01118679  0.52682239     0.29600
F3069       F  0.63966000  0.49754089  0.54469301    -0.19800
H3070       H  0.64711069  0.05328133  0.54340304     0.17960
H3071       H  0.70888983  0.49902795  0.96795317     0.17970
F3072       F  0.71379344  0.05777863  0.96489800    -0.19790
C3073       C  0.66852960  0.96380719  0.99981067     0.03210
C3074       C  0.66347929  0.94594707  0.02502263    -0.12940
C3075       C  0.63885047  0.92625987  0.02605474     0.00710
C3076       C  0.62517599  0.91792425  0.49852295    -0.11470
C3077       C  0.63491962  0.93181252  0.47119453     0.03200
C3078       C  0.65544450  0.95586396  0.47260568    -0.10890
H3079       H  0.67520029  0.95203891  0.04547402     0.08800
H3080       H  0.60769893  0.90090552  0.49832433     0.06320
H3081       H  0.65998682  0.96956176  0.45280911     0.06170
C3082       C  0.79700109  0.58329343  0.00012524     0.03210
C3083       C  0.81035999  0.59110032  0.02745273    -0.12940
C3084       C  0.83065001  0.61535445  0.02904151     0.00710
C3085       C  0.84045110  0.62932348  0.00184133    -0.11470
C3086       C  0.82677307  0.62122460  0.47430325     0.03200
C3087       C  0.80215514  0.60151023  0.47517843    -0.10890
H3088       H  0.80596028  0.57759153  0.04738702     0.08800
H3089       H  0.85790190  0.64635711  0.00216405     0.06320
H3090       H  0.78930883  0.59722640  0.45497482     0.06170
C3091       C  0.98266959  0.83801763  0.06200709     0.03210
C3092       C  0.50966320  0.85279988  0.06831818    -0.12940
C3093       C  0.51166001  0.87344348  0.09213052     0.00710
C3094       C  0.98451595  0.88307508  0.10640190    -0.11470
C3095       C  0.95693989  0.86857404  0.09918897     0.03200
C3096       C  0.95811564  0.84307958  0.08074070    -0.10890
H3097       H  0.52926750  0.84854237  0.05438532     0.08800
H3098       H  0.98493955  0.90079175  0.12302190     0.06320
H3099       H  0.93837443  0.82906252  0.07791795     0.06170
C3100       C  0.98554604  0.71022876  0.44043944     0.03210
C3101       C  0.95833280  0.69558942  0.43439768    -0.12940
C3102       C  0.95617389  0.67444111  0.41107409     0.00710
C3103       C  0.98310115  0.66473072  0.39659293    -0.11470
C3104       C  0.51073649  0.67928506  0.40316532     0.03200
C3105       C  0.51004084  0.70472407  0.42166894    -0.10890
H3106       H  0.93874028  0.70018770  0.44823360     0.08800
H3107       H  0.98245678  0.64684604  0.38015578     0.06320
H3108       H  0.53000458  0.71846597  0.42424114     0.06170
C3109       C  0.79910603  0.95873305  0.99918913     0.03210
C3110       C  0.81359619  0.95098458  0.02591733    -0.12940
C3111       C  0.83396758  0.92672443  0.02736064     0.00710
C3112       C  0.84328377  0.91301218  0.99984320    -0.11470
C3113       C  0.82915675  0.92159687  0.47232231     0.03200
C3114       C  0.80445803  0.94124152  0.47378524    -0.10890
H3115       H  0.80964185  0.96449651  0.04574361     0.08800
H3116       H  0.86055014  0.89579071  0.99991997     0.06320
H3117       H  0.79151940  0.94628957  0.45376892     0.06170
C3118       C  0.66913971  0.58941297  0.50129616     0.03210
C3119       C  0.66315218  0.60649089  0.02657670    -0.12940
C3120       C  0.63725240  0.62452948  0.02806870     0.00710
C3121       C  0.62272530  0.63258914  0.00059167    -0.11470
C3122       C  0.63282742  0.61943153  0.47308142     0.03200
C3123       C  0.65481821  0.59661629  0.47450075    -0.10890
H3124       H  0.67560067  0.60078447  0.04676766     0.08800
H3125       H  0.60423180  0.64848425  0.00061131     0.06320
H3126       H  0.65975809  0.58301579  0.45491068     0.06170
C3127       C  0.98189439  0.83768917  0.43937176     0.03210
C3128       C  0.50867742  0.85278988  0.43239613    -0.12940
C3129       C  0.51015815  0.87411692  0.40886276     0.00710
C3130       C  0.98283106  0.88366731  0.39514491    -0.11470
C3131       C  0.95536696  0.86907185  0.40298901     0.03200
C3132       C  0.95658527  0.84374873  0.42197526    -0.10890
H3133       H  0.52852736  0.84852876  0.44581032     0.08800
H3134       H  0.98302754  0.90146554  0.37836744     0.06320
H3135       H  0.93653278  0.83040356  0.42602297     0.06170
C3136       C  0.98605741  0.70979727  0.06226237     0.03210
C3137       C  0.51107903  0.70340171  0.07995543    -0.12940
C3138       C  0.51216100  0.67749107  0.09815347     0.00710
C3139       C  0.98469433  0.66232980  0.10488254    -0.11470
C3140       C  0.95756897  0.67195989  0.09079409     0.03200
C3141       C  0.95933073  0.69412793  0.06808454    -0.10890
H3142       H  0.53109658  0.71700378  0.07667832     0.08800
H3143       H  0.98434015  0.64397669  0.12104808     0.06320
H3144       H  0.93972940  0.69865684  0.05438779     0.06170
C3145       C  0.91825314  0.52232824  0.18711995     0.03210
C3146       C  0.91028721  0.99519138  0.17396872    -0.12940
C3147       C  0.88751681  0.99384302  0.15208511     0.00710
C3148       C  0.87505403  0.52137085  0.14108709    -0.11470
C3149       C  0.88354584  0.54899566  0.15474163     0.03200
C3150       C  0.90134135  0.54779873  0.18071735    -0.10890
H3151       H  0.92346721  0.97532756  0.17932688     0.08800
H3152       H  0.85933756  0.52129040  0.12252581     0.06320
H3153       H  0.90743798  0.56829159  0.19237027     0.06170
C3154       C  0.54201716  0.52313331  0.31526165     0.03210
C3155       C  0.54918872  0.55014669  0.32960800    -0.12940
C3156       C  0.57303632  0.55168371  0.35031152     0.00710
C3157       C  0.58666633  0.52437701  0.36014796    -0.11470
C3158       C  0.57882782  0.99695610  0.34594436     0.03200
C3159       C  0.56019870  0.99822418  0.32061086    -0.10890
H3160       H  0.53586513  0.57008525  0.32512874     0.08800
H3161       H  0.60339080  0.52455551  0.37780544     0.06320
H3162       H  0.55702628  0.97841449  0.30690169     0.06170
C3163       C  0.91929155  0.52363633  0.31643826     0.03210
C3164       C  0.91303710  0.55006739  0.33207249    -0.12940
C3165       C  0.88977011  0.55141142  0.35371532     0.00710
C3166       C  0.87636026  0.52381387  0.36364408    -0.11470
C3167       C  0.88408120  0.99649468  0.34878026     0.03200
C3168       C  0.90168078  0.99843839  0.32251810    -0.10890
H3169       H  0.92674287  0.56979933  0.32777609     0.08800
H3170       H  0.86021156  0.52366784  0.38198575     0.06320
H3171       H  0.90494800  0.97880836  0.30853572     0.06170
C3172       C  0.54456080  0.52210413  0.18250461     0.03210
C3173       C  0.56139063  0.54786889  0.17735615    -0.12940
C3174       C  0.58148815  0.54948461  0.15301716     0.00710
C3175       C  0.59124400  0.52202265  0.13969770    -0.11470
C3176       C  0.57818953  0.99423647  0.14953288     0.03200
C3177       C  0.55363184  0.99516633  0.16964684    -0.10890
H3178       H  0.55418988  0.56811233  0.18887792     0.08800
H3179       H  0.60864640  0.52222660  0.12253069     0.06320
H3180       H  0.54041195  0.97509505  0.17419369     0.06170
C3181       C  0.73382482  0.71082524  0.06540114     0.03210
C3182       C  0.76087930  0.70416215  0.08000256    -0.12940
C3183       C  0.76263934  0.68093488  0.10157151     0.00710
C3184       C  0.73533241  0.66782998  0.11242670    -0.11470
C3185       C  0.70772492  0.67543299  0.09817790     0.03200
C3186       C  0.70896205  0.69285437  0.07176927    -0.10890
H3187       H  0.78082030  0.71731566  0.07494477     0.08800
H3188       H  0.73564220  0.65173515  0.13083617     0.06320
H3189       H  0.68921301  0.69512292  0.05775353     0.06170
O3190       O  0.89593207  0.69130594  0.15016488    -0.85270
O3191       O  0.86380179  0.65101212  0.18709754    -0.82310
C3192       C  0.84442033  0.63098020  0.19281636     0.98190
O3193       O  0.83151968  0.61749606  0.17128969    -0.82350
O3194       O  0.79815533  0.65184836  0.13065929    -0.84990
C3195       C  0.79344939  0.67004483  0.10932579     1.02720
O3196       O  0.81500107  0.67772931  0.09205664    -0.77760
O3197       O  0.85914521  0.70977773  0.12286851    -0.77940
C3198       C  0.88101962  0.71377468  0.14043180     1.02670
O3199       O  0.92216941  0.64169353  0.11938022    -0.85270
O3200       O  0.88922449  0.60192120  0.15594925    -0.82330
C3201       C  0.87622613  0.57986845  0.14336625     0.98210
O3202       O  0.85683037  0.58464472  0.12328019    -0.82360
O3203       O  0.82361693  0.61819440  0.08188054    -0.84960
C3204       C  0.83957184  0.62605316  0.05934888     1.02680
O3205       O  0.86111377  0.64423577  0.06258620    -0.77780
O3206       O  0.90470900  0.67831669  0.09139857    -0.77930
C3207       C  0.92668387  0.66254267  0.10049599     1.02650
Cr3208     Cr  0.89012677  0.64659742  0.15066391     1.93740
Cr3209     Cr  0.83012099  0.62056992  0.12653420     1.93210
Cr3210     Cr  0.85992320  0.67501525  0.09477610     1.39100
O3211       O  0.86002840  0.64741046  0.12414334    -1.23020
C3212       C  0.73134206  0.71078483  0.43374703     0.03210
C3213       C  0.75839653  0.70464833  0.41886494    -0.12940
C3214       C  0.76083293  0.68077972  0.39839439     0.00710
C3215       C  0.73384441  0.66636449  0.38867774    -0.11470
C3216       C  0.70602132  0.67363957  0.40299869     0.03200
C3217       C  0.70689552  0.69209789  0.42850216    -0.10890
H3218       H  0.77784682  0.71870306  0.42300872     0.08800
H3219       H  0.73455778  0.64967140  0.37103646     0.06320
H3220       H  0.68708021  0.69471830  0.44253979     0.06170
C3221       C  0.80122038  0.58917023  0.25149501     0.03210
C3222       C  0.81765602  0.59536449  0.22568067    -0.12940
C3223       C  0.83671517  0.62055566  0.22413769     0.00710
C3224       C  0.84600657  0.63394309  0.25175739    -0.11470
C3225       C  0.83330209  0.62331938  0.27954605     0.03200
C3226       C  0.80982414  0.60205257  0.27840866    -0.10890
H3227       H  0.81054193  0.58394598  0.20541504     0.08800
H3228       H  0.86244662  0.65195941  0.25164374     0.06320
H3229       H  0.79650419  0.59688684  0.29831496     0.06170
O3230       O  0.85862756  0.64967222  0.44043377    -0.85270
O3231       O  0.90332160  0.68174544  0.40986369    -0.82310
C3232       C  0.92538265  0.66578719  0.40107765     0.98190
O3233       O  0.92130180  0.64508546  0.38222104    -0.82350
O3234       O  0.89000073  0.60424107  0.34707796    -0.84990
C3235       C  0.87965851  0.58236436  0.36245552     1.02720
O3236       O  0.85978136  0.58716730  0.38230361    -0.77760
O3237       O  0.82340986  0.62127185  0.42122249    -0.77940
C3238       C  0.83718612  0.63138279  0.44396145     1.02670
O3239       O  0.81337091  0.68061834  0.40722560    -0.85270
O3240       O  0.85805609  0.71233108  0.37629769    -0.82330
C3241       C  0.88014522  0.71606597  0.35876388     0.98210
O3242       O  0.89523004  0.69350968  0.34997982    -0.82360
O3243       O  0.86208487  0.65265929  0.31541660    -0.84960
C3244       C  0.84301340  0.63218503  0.31047319     1.02680
O3245       O  0.83254528  0.61678013  0.33229888    -0.77780
O3246       O  0.79749583  0.65115189  0.37118500    -0.77930
C3247       C  0.79211514  0.67070824  0.39096620     1.02650
Cr3248     Cr  0.85842636  0.67849723  0.40595126     1.93740
Cr3249     Cr  0.88946573  0.64898773  0.35105042     1.93210
Cr3250     Cr  0.83092368  0.62158279  0.37689118     1.39100
O3251       O  0.85956485  0.64975524  0.37797358    -1.23020
C3252       C  0.92222060  0.77059528  0.18601674     0.03210
C3253       C  0.91640052  0.74548607  0.16845073    -0.12940
C3254       C  0.89092910  0.74437238  0.14994679     0.00710
C3255       C  0.87611315  0.77179763  0.14258745    -0.11470
C3256       C  0.88554769  0.79899302  0.15642513     0.03200
C3257       C  0.90720297  0.79740344  0.17940756    -0.10890
H3258       H  0.92940381  0.72529127  0.17285678     0.08800
H3259       H  0.85797834  0.77201398  0.12637705     0.06320
H3260       H  0.91153224  0.81702180  0.19308029     0.06170
C3261       C  0.73413802  0.83309612  0.06411267     0.03210
C3262       C  0.70862976  0.85030488  0.07016738    -0.12940
C3263       C  0.70709361  0.86875955  0.09560326     0.00710
C3264       C  0.73444360  0.87721359  0.10965119    -0.11470
C3265       C  0.76196183  0.86412958  0.09974604     0.03200
C3266       C  0.76081070  0.84037654  0.07901155    -0.10890
H3267       H  0.68871752  0.84670795  0.05669052     0.08800
H3268       H  0.73438630  0.89389925  0.12731238     0.06320
H3269       H  0.78090338  0.82718396  0.07510278     0.06170
O3270       O  0.85575668  0.83393998  0.12719585    -0.85270
O3271       O  0.81468357  0.86616959  0.09258147    -0.82310
C3272       C  0.79244632  0.87530237  0.10805738     0.98190
O3273       O  0.79626531  0.89487602  0.12812401    -0.82350
O3274       O  0.82729043  0.92973309  0.16935719    -0.84990
C3275       C  0.83598134  0.91418791  0.19166654     1.02720
O3276       O  0.85497235  0.89341217  0.18795581    -0.77760
O3277       O  0.89026604  0.85186908  0.15723194    -0.77940
C3278       C  0.87577928  0.82970434  0.14683780     1.02670
O3279       O  0.90400159  0.86394821  0.09785020    -0.85270
O3280       O  0.86294718  0.89713272  0.06321405    -0.82330
C3281       C  0.84232460  0.91611706  0.05831855     0.98210
O3282       O  0.82633435  0.92551054  0.08005474    -0.82360
O3283       O  0.85915524  0.95872232  0.12195168    -0.85040
C3284       C  0.87760192  0.96313735  0.14303006     1.02680
O3285       O  0.88678167  0.94117118  0.15892296    -0.77780
O3286       O  0.92139971  0.89902619  0.12752260    -0.77930
C3287       C  0.92609103  0.87823999  0.10883453     1.02650
Cr3288     Cr  0.85931071  0.86792739  0.09769815     1.93740
Cr3289     Cr  0.82983973  0.92465394  0.12487978     1.93210
Cr3290     Cr  0.88582017  0.89644857  0.15526104     1.39100
O3291       O  0.85848289  0.89641807  0.12583470    -1.23020
C3292       C  0.79431050  0.95920332  0.25000109     0.03210
C3293       C  0.80171508  0.94454557  0.22322432    -0.12940
C3294       C  0.82520035  0.92330098  0.22204218     0.00710
C3295       C  0.83849670  0.91352037  0.24942131    -0.11470
C3296       C  0.83034215  0.92781068  0.27672041     0.03200
C3297       C  0.81163264  0.95319647  0.27539112    -0.10890
H3298       H  0.78851033  0.94882748  0.20323779     0.08800
H3299       H  0.85503608  0.89559876  0.24942610     0.06320
H3300       H  0.80736408  0.96621521  0.29550019     0.06170
C3301       C  0.91974934  0.77181934  0.30967930     0.03210
C3302       C  0.91472944  0.74713352  0.32837034    -0.12940
C3303       C  0.88989362  0.74639051  0.34791064     0.00710
C3304       C  0.87556123  0.77396267  0.35513671    -0.11470
C3305       C  0.88502594  0.80098498  0.34054819     0.03200
C3306       C  0.90571474  0.79909074  0.31657361    -0.10890
H3307       H  0.92780323  0.72694042  0.32429974     0.08800
H3308       H  0.85802427  0.77448366  0.37215804     0.06320
H3309       H  0.91015651  0.81874935  0.30268168     0.06170
C3310       C  0.73156427  0.83301130  0.43259924     0.03210
C3311       C  0.70641171  0.85079032  0.42695104    -0.12940
C3312       C  0.70530289  0.87017323  0.40192896     0.00710
C3313       C  0.73289527  0.87821475  0.38759178    -0.11470
C3314       C  0.76011357  0.86402061  0.39691503     0.03200
C3315       C  0.75832858  0.83982416  0.41738155    -0.10890
H3316       H  0.68642081  0.84693942  0.44048875     0.08800
H3317       H  0.73327274  0.89546235  0.37025432     0.06320
H3318       H  0.77803838  0.82598122  0.42100870     0.06170
O3319       O  0.82367970  0.92296206  0.41918961    -0.85270
O3320       O  0.85666306  0.95958457  0.37901771    -0.82310
C3321       C  0.87545323  0.96515163  0.35830374     0.98190
O3322       O  0.88693146  0.94355225  0.34350036    -0.82350
O3323       O  0.92041372  0.90048000  0.37527866    -0.84990
C3324       C  0.92469918  0.87841843  0.39274646     1.02720
O3325       O  0.90243470  0.86273215  0.40169688    -0.77760
O3326       O  0.85980684  0.89402447  0.43632300    -0.77940
C3327       C  0.83852814  0.91223158  0.44123220     1.02670
O3328       O  0.79572068  0.89454110  0.36901833    -0.85270
O3329       O  0.82860399  0.93123803  0.32979802    -0.82330
C3330       C  0.83962995  0.91757202  0.30729949     0.98210
O3331       O  0.85843047  0.89670404  0.31124363    -0.82360
O3332       O  0.89193875  0.85381987  0.34226525    -0.84960
C3333       C  0.87607268  0.83152671  0.35076889     1.02680
O3334       O  0.85491696  0.83520582  0.36939549    -0.77780
O3335       O  0.81277566  0.86490600  0.40455941    -0.77930
C3336       C  0.79102719  0.87467158  0.38886551     1.02650
Cr3337     Cr  0.82875350  0.92454624  0.37431559     1.93740
Cr3338     Cr  0.88687466  0.89856002  0.34563892     1.93210
Cr3339     Cr  0.85760691  0.86690322  0.40061041     1.39100
O3340       O  0.85790896  0.89686168  0.37366325    -1.23020
C3341       C  0.67088181  0.95554183  0.24955846     0.03210
C3342       C  0.65237952  0.95071279  0.27433303    -0.12940
C3343       C  0.63364608  0.92532954  0.27605250     0.00710
C3344       C  0.62568291  0.91093893  0.24862596    -0.11470
C3345       C  0.63969262  0.92053230  0.22116452     0.03200
C3346       C  0.66399735  0.94085460  0.22278405    -0.10890
H3347       H  0.65578211  0.96476155  0.29386479     0.08800
H3348       H  0.60874245  0.89339413  0.24855623     0.06320
H3349       H  0.67783909  0.94501593  0.20305006     0.06170
C3350       C  0.54829159  0.77507376  0.31269444     0.03210
C3351       C  0.56347761  0.74834420  0.31929250    -0.12940
C3352       C  0.58450006  0.74655361  0.34285043     0.00710
C3353       C  0.59382204  0.77380481  0.35689361    -0.11470
C3354       C  0.57922588  0.80137391  0.34922591     0.03200
C3355       C  0.55402684  0.80017564  0.33030711    -0.10890
H3356       H  0.55942604  0.72873633  0.30553311     0.08800
H3357       H  0.61147498  0.77348380  0.37362378     0.06320
H3358       H  0.54065976  0.82018200  0.32624088     0.06170
O3359       O  0.60551004  0.89540369  0.31269114    -0.85270
O3360       O  0.57337273  0.85441574  0.34897170    -0.82310
C3361       C  0.58852035  0.83225666  0.35903623     0.98190
O3362       O  0.60995367  0.83688696  0.37701820    -0.82350
O3363       O  0.65243684  0.87118488  0.40845884    -0.84990
C3364       C  0.67457888  0.88054398  0.39283715     1.02720
O3365       O  0.67005955  0.89836883  0.37111924    -0.77760
O3366       O  0.63589130  0.93055057  0.32893434    -0.77940
C3367       C  0.62442145  0.91599640  0.30727469     1.02670
O3368       O  0.57724645  0.94388187  0.34239199    -0.85270
O3369       O  0.54512270  0.90353353  0.37890416    -0.82330
C3370       C  0.54087538  0.88307512  0.39829382     0.98210
O3371       O  0.56296128  0.86754479  0.40753689    -0.82360
O3372       O  0.60500748  0.90261238  0.43727547    -0.84960
C3373       C  0.62589807  0.92147464  0.44081485     1.02680
O3374       O  0.64138539  0.93043850  0.41841315    -0.77780
O3375       O  0.60752724  0.96220943  0.37641343    -0.77930
C3376       C  0.58841462  0.96630882  0.35594031     1.02650
Cr3377     Cr  0.57792987  0.89926314  0.34824966     1.93740
Cr3378     Cr  0.60766224  0.87202527  0.40491251     1.93210
Cr3379     Cr  0.63613087  0.92777697  0.37380308     1.39100
O3380       O  0.60738314  0.89958003  0.37547465    -1.23020
C3381       C  0.67425687  0.58830140  0.25085750     0.03210
C3382       C  0.66405162  0.60000724  0.27794296    -0.12940
C3383       C  0.63947553  0.61991594  0.27872693     0.00710
C3384       C  0.62666124  0.62974763  0.25107216    -0.11470
C3385       C  0.63701614  0.61714947  0.22358860     0.03200
C3386       C  0.65813358  0.59377153  0.22474762    -0.10890
H3387       H  0.67684872  0.59536462  0.29818296     0.08800
H3388       H  0.60898057  0.64654848  0.25096395     0.06320
H3389       H  0.66658060  0.58370565  0.20418091     0.06170
O3390       O  0.63781055  0.61756771  0.42032358    -0.85270
O3391       O  0.60291496  0.58617692  0.37928823    -0.82310
C3392       C  0.58413975  0.58221540  0.35846639     0.98190
O3393       O  0.57603818  0.60423848  0.34210492    -0.82350
O3394       O  0.54476903  0.64807209  0.37428851    -0.84990
C3395       C  0.54112095  0.66929413  0.39268152     1.02720
O3396       O  0.56381589  0.68342875  0.40261709    -0.77760
O3397       O  0.60354907  0.64865442  0.43724641    -0.77940
C3398       C  0.62327108  0.62875153  0.44215565     1.02670
O3399       O  0.67048490  0.64510838  0.37283026    -0.85270
O3400       O  0.63628221  0.61282652  0.33123415    -0.82330
C3401       C  0.62813835  0.62871869  0.30891696     0.98210
O3402       O  0.60987260  0.65016515  0.31249292    -0.82360
O3403       O  0.57724792  0.69383883  0.34333099    -0.84960
C3404       C  0.59305233  0.71550026  0.35297159     1.02680
O3405       O  0.61330159  0.71053204  0.37223928    -0.77780
O3406       O  0.65297679  0.67591997  0.40698010    -0.77930
C3407       C  0.67515702  0.66423345  0.39318911     1.02650
Cr3408     Cr  0.63434863  0.61812091  0.37573930     1.93740
Cr3409     Cr  0.57954486  0.64897084  0.34564466     1.93210
Cr3410     Cr  0.60833017  0.67700722  0.40223422     1.39100
O3411       O  0.60745126  0.64808056  0.37453791    -1.23020
C3412       C  0.54931014  0.77417128  0.18991675     0.03210
C3413       C  0.56384305  0.74702174  0.18354698    -0.12940
C3414       C  0.58474203  0.74496087  0.15976671     0.00710
C3415       C  0.59443776  0.77196383  0.14519846    -0.11470
C3416       C  0.57991170  0.79956113  0.15214768     0.03200
C3417       C  0.55454040  0.79867913  0.17105150    -0.10890
H3418       H  0.55937179  0.72742379  0.19750295     0.08800
H3419       H  0.61221601  0.77140051  0.12843595     0.06320
H3420       H  0.54082175  0.81859996  0.17415597     0.06170
O3421       O  0.56434265  0.86561027  0.09273892    -0.85270
O3422       O  0.60736877  0.89816748  0.06062354    -0.82310
C3423       C  0.62860087  0.91658459  0.05660520     0.98190
O3424       O  0.64272036  0.92692659  0.07903266    -0.82350
O3425       O  0.60831574  0.95946896  0.12043494    -0.84990
C3426       C  0.58924489  0.96368926  0.14111086     1.02720
O3427       O  0.58005477  0.94159152  0.15684508    -0.77760
O3428       O  0.54721301  0.90159981  0.12177223    -0.77940
C3429       C  0.54258882  0.88151745  0.10234274     1.02670
O3430       O  0.61119209  0.83432205  0.12356500    -0.85270
O3431       O  0.65408607  0.86747756  0.09097170    -0.82330
C3432       C  0.67628188  0.87805275  0.10541912     0.98210
O3433       O  0.67186033  0.89651470  0.12642310    -0.82360
O3434       O  0.63859395  0.92897366  0.16853881    -0.84960
C3435       C  0.62908914  0.91273502  0.19024469     1.02680
O3436       O  0.60973598  0.89246360  0.18546911    -0.77780
O3437       O  0.57499115  0.85249053  0.15156905    -0.77930
C3438       C  0.58969108  0.83011774  0.14174239     1.02650
Cr3439     Cr  0.60927083  0.86889317  0.09463983     1.93740
Cr3440     Cr  0.63772976  0.92550208  0.12361650     1.93210
Cr3441     Cr  0.58059633  0.89700965  0.15143513     1.39100
O3442       O  0.60929180  0.89706293  0.12321821    -1.23020
O3443       O  0.54688511  0.64579142  0.12586489    -0.85270
O3444       O  0.57966808  0.60247318  0.15819073    -0.82310
C3445       C  0.59033591  0.58057167  0.14329855     0.98190
O3446       O  0.60854105  0.58559927  0.12203481    -0.82350
O3447       O  0.64135803  0.62067025  0.08102358    -0.84990
C3448       C  0.62706762  0.63249683  0.05918652     1.02720
O3449       O  0.60624299  0.65111852  0.06435449    -0.77760
O3450       O  0.56517041  0.68352002  0.09963513    -0.77940
C3451       C  0.54276142  0.66794301  0.10846664     1.02670
O3452       O  0.57674860  0.69227880  0.15820732    -0.85270
O3453       O  0.60952419  0.64881228  0.18922727    -0.82330
C3454       C  0.62784877  0.62749447  0.19304289     0.98210
O3455       O  0.63839438  0.61347763  0.17049190    -0.82360
O3456       O  0.67219159  0.64794509  0.12956162    -0.84960
C3457       C  0.67685830  0.66677748  0.10873228     1.02680
O3458       O  0.65466990  0.67825687  0.09488706    -0.77780
O3459       O  0.61420652  0.70984467  0.13102045    -0.77930
C3460       C  0.59317126  0.71417066  0.14965329     1.02650
Cr3461     Cr  0.58068526  0.64737587  0.15527536     1.93740
Cr3462     Cr  0.63756997  0.61953353  0.12585842     1.93210
Cr3463     Cr  0.60994681  0.67808330  0.09994443     1.39100
O3464       O  0.60936113  0.64819987  0.12695217    -1.23020
C3465       C  0.54154131  0.80567026  0.26682572    -0.21230
C3466       C  0.53392544  0.77941139  0.28287900    -0.09270
C3467       C  0.52063915  0.75541878  0.26716621     0.29590
C3468       C  0.52143283  0.75536135  0.23567094    -0.21230
C3469       C  0.53546218  0.77917327  0.21991538    -0.09280
C3470       C  0.54293619  0.80555036  0.23583237     0.29600
F3471       F  0.55684661  0.82948196  0.22258295    -0.19800
H3472       H  0.55140393  0.82500251  0.27778670     0.17960
H3473       H  0.51388962  0.73546920  0.22386170     0.17970
F3474       F  0.50975292  0.73093045  0.28208486    -0.19790
C3475       C  0.74811272  0.96477022  0.28041293    -0.21230
C3476       C  0.76393643  0.97266469  0.25407961    -0.09270
C3477       C  0.74771066  0.98527499  0.22990926     0.29590
C3478       C  0.71620340  0.98360370  0.22987932    -0.21230
C3479       C  0.70090667  0.96948448  0.25394736    -0.09280
C3480       C  0.71716048  0.96252771  0.28032942     0.29600
F3481       F  0.70439363  0.94845857  0.30445157    -0.19800
H3482       H  0.75932731  0.95538356  0.29991356     0.17960
H3483       H  0.70409401  0.99069717  0.20993047     0.17970
F3484       F  0.76221247  0.99650708  0.20532248    -0.19790
C3485       C  0.94783948  0.78965982  0.26366696    -0.21230
C3486       C  0.93230805  0.76670684  0.27925499    -0.09270
C3487       C  0.92276456  0.74108538  0.26326755     0.29590
C3488       C  0.92499117  0.74054677  0.23237352    -0.21230
C3489       C  0.93514875  0.76592711  0.21633641    -0.09280
C3490       C  0.94927276  0.78933183  0.23218521     0.29600
F3491       F  0.96174766  0.81307015  0.21729537    -0.19800
H3492       H  0.95637846  0.80907822  0.27558273     0.17960
H3493       H  0.91397073  0.72194151  0.22123664     0.17970
F3494       F  0.90640651  0.71864319  0.27637115    -0.19790
C3495       C  0.75351937  0.60276500  0.22919273    -0.21230
C3496       C  0.76927651  0.58239967  0.24740112    -0.09270
C3497       C  0.75350495  0.56102908  0.26482711     0.29590
C3498       C  0.72191802  0.56112178  0.26468572    -0.21230
C3499       C  0.70650563  0.58273204  0.24738459    -0.09280
C3500       C  0.72268716  0.60336337  0.22947647     0.29600
F3501       F  0.70883847  0.62634884  0.21462166    -0.19800
H3502       H  0.76515825  0.62029242  0.21656714     0.17960
H3503       H  0.70957781  0.54549043  0.27897957     0.17970
F3504       F  0.76852914  0.54133335  0.28277082    -0.19790
C3505       C  0.75126185  0.75593262  0.46077991    -0.21230
C3506       C  0.72666991  0.74040942  0.44835932    -0.09270
C3507       C  0.70004377  0.75670185  0.44227804     0.29590
C3508       C  0.70052447  0.78776227  0.44247448    -0.21230
C3509       C  0.72748634  0.80338570  0.44779384    -0.09280
C3510       C  0.75187812  0.78739470  0.46020628     0.29600
F3511       F  0.77739508  0.80181775  0.46866040    -0.19800
H3512       H  0.77136656  0.74389738  0.46761039     0.17960
H3513       H  0.68077751  0.79886204  0.43349880     0.17970
F3514       F  0.67502001  0.74368096  0.43066086    -0.19790
C3515       C  0.75463192  0.75578410  0.03772972    -0.21230
C3516       C  0.72965321  0.74036136  0.04996105    -0.09270
C3517       C  0.70282686  0.75678825  0.05487127     0.29590
C3518       C  0.70335020  0.78782834  0.05390309    -0.21230
C3519       C  0.73052158  0.80343040  0.04912790    -0.09280
C3520       C  0.75527919  0.78726638  0.03761768     0.29600
F3521       F  0.78101446  0.80153867  0.02914052    -0.19800
H3522       H  0.77489753  0.74369899  0.03143550     0.17960
H3523       H  0.68318604  0.79891392  0.06196922     0.17970
F3524       F  0.67727211  0.74407058  0.06604256    -0.19790
C3525       C  0.99646672  0.54335134  0.28836807    -0.21230
C3526       C  0.51193051  0.51884730  0.30136653    -0.09270
C3527       C  0.99552188  0.49232037  0.30796783     0.29590
C3528       C  0.96448595  0.49269052  0.30723771    -0.21230
C3529       C  0.94884750  0.51950574  0.30113506    -0.09280
C3530       C  0.96492143  0.54377643  0.28829658     0.29600
F3531       F  0.95039765  0.56887603  0.27853321    -0.19800
H3532       H  0.50857137  0.56337426  0.28121156     0.17960
H3533       H  0.95330580  0.97300724  0.31648539     0.17970
F3534       F  0.50832503  0.96748836  0.32049724    -0.19790
C3535       C  0.96543095  0.54787523  0.17632895    -0.21230
C3536       C  0.95006676  0.52707773  0.19462219    -0.09270
C3537       C  0.96647928  0.50725963  0.21314644     0.29590
C3538       C  0.99802176  0.50691052  0.21131664    -0.21230
C3539       C  0.51286278  0.52616262  0.19084863    -0.09280
C3540       C  0.99618437  0.54704992  0.17384418     0.29600
F3541       F  0.50910391  0.56420873  0.15183274    -0.19800
H3542       H  0.95352762  0.56269365  0.16095169     0.17960
H3543       H  0.51066183  0.49059316  0.22438843     0.17970
F3544       F  0.95202267  0.48720118  0.23130614    -0.19790
C3545       C  0.96640514  0.73819107  0.48567698    -0.21230
C3546       C  0.99051141  0.72470579  0.47005988    -0.09270
C3547       C  0.51715763  0.71811948  0.48608976     0.29590
C3548       C  0.51715944  0.71925387  0.01709857    -0.21230
C3549       C  0.99052053  0.72558888  0.03298984    -0.09280
C3550       C  0.96634535  0.73864379  0.01717179     0.29600
F3551       F  0.94154005  0.74875186  0.03196411    -0.19800
H3552       H  0.94635545  0.74536510  0.47379808     0.17960
H3553       H  0.53678494  0.70992640  0.02811848     0.17970
F3554       F  0.54159680  0.70514034  0.47303035    -0.19790
C3555       C  0.50205718  0.81053890  0.01655701    -0.21230
C3556       C  0.97790590  0.82391827  0.03219242    -0.09270
C3557       C  0.95130951  0.83063776  0.01617078     0.29590
C3558       C  0.95130227  0.82952719  0.48517799    -0.21230
C3559       C  0.97782306  0.82286894  0.46920692    -0.09280
C3560       C  0.50208185  0.80998388  0.48505373     0.29600
F3561       F  0.52680451  0.79965230  0.47028187    -0.19800
H3562       H  0.52210600  0.80336647  0.02844263     0.17960
H3563       H  0.93167139  0.83890629  0.47421571     0.17970
F3564       F  0.92689123  0.84362200  0.02927075    -0.19790
C3565       C  0.79451460  0.50522580  0.46952168    -0.21230
C3566       C  0.78587072  0.98916481  0.99527238    -0.09270
C3567       C  0.77163792  0.50463248  0.01898069     0.29590
C3568       C  0.77144639  0.53617884  0.01897001    -0.21230
C3569       C  0.78550904  0.55232184  0.99541409    -0.09280
C3570       C  0.79502664  0.53622448  0.46959659     0.29600
F3571       F  0.80960463  0.54971433  0.44617777    -0.19800
H3572       H  0.80548908  0.99441421  0.45061822     0.17960
H3573       H  0.76275242  0.54783674  0.03852069     0.17970
F3574       F  0.76030032  0.98947342  0.04312513    -0.19790
C3575       C  0.66221636  0.54199749  0.02785843    -0.21230
C3576       C  0.67870791  0.55812048  0.50617520    -0.09270
C3577       C  0.69705994  0.54253969  0.48561631     0.29590
C3578       C  0.69624902  0.51100480  0.48504666    -0.21230
C3579       C  0.67697280  0.99530378  0.00483218    -0.09280
C3580       C  0.66064656  0.51118876  0.02683579     0.29600
F3581       F  0.63968838  0.99754472  0.04472066    -0.19800
H3582       H  0.64714143  0.55328323  0.04342610     0.17960
H3583       H  0.70891531  0.99902685  0.46797453     0.17970
F3584       F  0.71382295  0.55777883  0.46492632    -0.19790
C3585       C  0.66853864  0.96380407  0.49981000     0.03210
C3586       C  0.66348702  0.94594595  0.52502316    -0.12940
C3587       C  0.63885871  0.92625795  0.52605515     0.00710
C3588       C  0.62516751  0.91792667  0.99852260    -0.11470
C3589       C  0.63491109  0.93181563  0.97119455     0.03200
C3590       C  0.65543432  0.95586837  0.97260638    -0.10890
H3591       H  0.67520488  0.95204155  0.54547523     0.08800
H3592       H  0.60769099  0.90090741  0.99832366     0.06320
H3593       H  0.65997597  0.96956648  0.95280990     0.06170
C3594       C  0.79717730  0.58306817  0.50011669     0.03210
C3595       C  0.81050971  0.59091375  0.52744851    -0.12940
C3596       C  0.83073016  0.61522926  0.52903633     0.00710
C3597       C  0.84049687  0.62922341  0.50183777    -0.11470
C3598       C  0.82669150  0.62136579  0.97431122     0.03200
C3599       C  0.80199651  0.60174656  0.97519770    -0.10890
H3600       H  0.80612746  0.57741331  0.54738204     0.08800
H3601       H  0.85788870  0.64632481  0.50216641     0.06320
H3602       H  0.78913655  0.59749636  0.95499920     0.06170
C3603       C  0.98268112  0.83800138  0.56200900     0.03210
C3604       C  0.50967215  0.85278868  0.56831903    -0.12940
C3605       C  0.51166700  0.87342915  0.59213413     0.00710
C3606       C  0.98452239  0.88305070  0.60641129    -0.11470
C3607       C  0.95694881  0.86854377  0.59919968     0.03200
C3608       C  0.95812782  0.84305381  0.58074595    -0.10890
H3609       H  0.52927549  0.84853799  0.55438257     0.08800
H3610       H  0.98494376  0.90076468  0.62303418     0.06320
H3611       H  0.93838821  0.82903504  0.57791960     0.06170
C3612       C  0.98554585  0.71024105  0.94043410     0.03210
C3613       C  0.95833015  0.69560709  0.93439043    -0.12940
C3614       C  0.95616904  0.67445978  0.91106637     0.00710
C3615       C  0.98309586  0.66474454  0.89658692    -0.11470
C3616       C  0.51073334  0.67929437  0.90316073     0.03200
C3617       C  0.51004025  0.70473360  0.92166401    -0.10890
H3618       H  0.93873765  0.70020829  0.94822542     0.08800
H3619       H  0.98244957  0.64685991  0.88014985     0.06320
H3620       H  0.53000574  0.71847279  0.92423738     0.06170
C3621       C  0.79894806  0.95851898  0.49920189     0.03210
C3622       C  0.81347638  0.95082085  0.52592181    -0.12940
C3623       C  0.83391983  0.92662363  0.52736542     0.00710
C3624       C  0.84326865  0.91293542  0.49984659    -0.11470
C3625       C  0.82921431  0.92172164  0.97231247     0.03200
C3626       C  0.80459744  0.94146760  0.97376191    -0.10890
H3627       H  0.80950523  0.96434227  0.54574676     0.08800
H3628       H  0.86059843  0.89578127  0.49991624     0.06320
H3629       H  0.79168653  0.94656470  0.95373787     0.06170
C3630       C  0.66913356  0.58941308  0.00129546     0.03210
C3631       C  0.66315542  0.60648899  0.52657772    -0.12940
C3632       C  0.63725404  0.62452552  0.52806873     0.00710
C3633       C  0.62272758  0.63258468  0.50059142    -0.11470
C3634       C  0.63282244  0.61943402  0.97308151     0.03200
C3635       C  0.65481001  0.59661585  0.97450084    -0.10890
H3636       H  0.67560167  0.60078053  0.54676952     0.08800
H3637       H  0.60423224  0.64847764  0.50061075     0.06320
H3638       H  0.65974659  0.58301419  0.95491087     0.06170
C3639       C  0.98188963  0.83769919  0.93937308     0.03210
C3640       C  0.50867448  0.85279691  0.93239747    -0.12940
C3641       C  0.51015682  0.87412579  0.90886558     0.00710
C3642       C  0.98283036  0.88368302  0.89515150    -0.11470
C3643       C  0.95536492  0.86909109  0.90299595     0.03200
C3644       C  0.95658122  0.84376404  0.92197738    -0.10890
H3645       H  0.52852479  0.84853170  0.94580975     0.08800
H3646       H  0.98302830  0.90148342  0.87837633     0.06320
H3647       H  0.93652792  0.83041923  0.92602170     0.06170
C3648       C  0.98605349  0.70978370  0.56226451     0.03210
C3649       C  0.51107503  0.70339200  0.57995892    -0.12940
C3650       C  0.51216126  0.67747942  0.59815375     0.00710
C3651       C  0.98469781  0.66231081  0.60487920    -0.11470
C3652       C  0.95757153  0.67193552  0.59078963     0.03200
C3653       C  0.95933006  0.69410704  0.56808265    -0.10890
H3654       H  0.53109000  0.71699858  0.57668482     0.08800
H3655       H  0.98434681  0.64395551  0.62104239     0.06320
H3656       H  0.93972903  0.69863317  0.55438463     0.06170
C3657       C  0.91825957  0.52230087  0.68713264     0.03210
C3658       C  0.91030060  0.99516203  0.67397991    -0.12940
C3659       C  0.88753355  0.99380986  0.65209287     0.00710
C3660       C  0.87506807  0.52133548  0.64109330    -0.11470
C3661       C  0.88355246  0.54896136  0.65474969     0.03200
C3662       C  0.90134228  0.54776769  0.68072910    -0.10890
H3663       H  0.92348299  0.97530014  0.67933945     0.08800
H3664       H  0.85935496  0.52125263  0.62252918     0.06320
H3665       H  0.90743213  0.56826208  0.69238289     0.06170
C3666       C  0.54201347  0.52313568  0.81526238     0.03210
C3667       C  0.54918605  0.55014869  0.82960866    -0.12940
C3668       C  0.57303370  0.55168527  0.85031190     0.00710
C3669       C  0.58666411  0.52437843  0.86014739    -0.11470
C3670       C  0.57882484  0.99695756  0.84594398     0.03200
C3671       C  0.56019369  0.99822558  0.82061181    -0.10890
H3672       H  0.53586270  0.57008752  0.82512985     0.08800
H3673       H  0.60338936  0.52455679  0.87780415     0.06320
H3674       H  0.55701924  0.97841561  0.80690352     0.06170
C3675       C  0.91928791  0.52365327  0.81644479     0.03210
C3676       C  0.91303681  0.55008356  0.83208194    -0.12940
C3677       C  0.88976782  0.55142899  0.85372292     0.00710
C3678       C  0.87635336  0.52383224  0.86364741    -0.11470
C3679       C  0.88407190  0.99651368  0.84878094     0.03200
C3680       C  0.90167281  0.99845758  0.82252005    -0.10890
H3681       H  0.92674593  0.56981388  0.82778843     0.08800
H3682       H  0.86020319  0.52368636  0.88198784     0.06320
H3683       H  0.90493861  0.97882826  0.80853628     0.06170
C3684       C  0.54456489  0.52209969  0.68250788     0.03210
C3685       C  0.56139253  0.54786547  0.67735748    -0.12940
C3686       C  0.58148977  0.54948148  0.65301837     0.00710
C3687       C  0.59124610  0.52201987  0.63969854    -0.11470
C3688       C  0.57819286  0.99423325  0.64953387     0.03200
C3689       C  0.55363632  0.99516227  0.66964938    -0.10890
H3690       H  0.55419162  0.56810878  0.68887938     0.08800
H3691       H  0.60864802  0.52222444  0.62253105     0.06320
H3692       H  0.54041778  0.97509038  0.67419742     0.06170
C3693       C  0.73382884  0.71081224  0.56539261     0.03210
C3694       C  0.76088660  0.70413311  0.57998193    -0.12940
C3695       C  0.76264393  0.68089958  0.60154516     0.00710
C3696       C  0.73533478  0.66780373  0.61240582    -0.11470
C3697       C  0.70772607  0.67541989  0.59816649     0.03200
C3698       C  0.70896246  0.69284664  0.57176165    -0.10890
H3699       H  0.78083129  0.71727988  0.57492137     0.08800
H3700       H  0.73564356  0.65170531  0.63081224     0.06320
H3701       H  0.68921108  0.69512364  0.55775061     0.06170
O3702       O  0.89592750  0.69127080  0.65015051    -0.85270
O3703       O  0.86380258  0.65098153  0.68708536    -0.82310
C3704       C  0.84441709  0.63095467  0.69280701     0.98190
O3705       O  0.83151442  0.61746864  0.67128195    -0.82350
O3706       O  0.79815455  0.65180479  0.63063180    -0.84990
C3707       C  0.79345181  0.66999952  0.60929613     1.02720
O3708       O  0.81500503  0.67767832  0.59202690    -0.77760
O3709       O  0.85914299  0.70974014  0.62284845    -0.77940
C3710       C  0.88101291  0.71373846  0.64041901     1.02670
O3711       O  0.92217432  0.64165958  0.61937162    -0.85270
O3712       O  0.88923044  0.60188754  0.65594731    -0.82330
C3713       C  0.87623154  0.57983186  0.64337035     0.98210
O3714       O  0.85683466  0.58460259  0.62328481    -0.82360
O3715       O  0.82363385  0.61812990  0.58186639    -0.84960
C3716       C  0.83960441  0.62597601  0.55934146     1.02680
O3717       O  0.86112962  0.64417984  0.56257840    -0.77780
O3718       O  0.90471113  0.67827935  0.59138829    -0.77930
C3719       C  0.92668765  0.66250980  0.60048792     1.02650
Cr3720     Cr  0.89012826  0.64656286  0.65065340     1.93740
Cr3721     Cr  0.83012410  0.62052727  0.62652317     1.93210
Cr3722     Cr  0.85992679  0.67496997  0.59475936     1.39100
O3723       O  0.86003058  0.64736982  0.62413114    -1.23020
C3724       C  0.73133821  0.71078767  0.93374180     0.03210
C3725       C  0.75838967  0.70466009  0.91885131    -0.12940
C3726       C  0.76082688  0.68079456  0.89837757     0.00710
C3727       C  0.73383955  0.66637450  0.88866529    -0.11470
C3728       C  0.70601795  0.67364315  0.90299250     0.03200
C3729       C  0.70689354  0.69209792  0.92849861    -0.10890
H3730       H  0.77783748  0.71871909  0.92299251     0.08800
H3731       H  0.73455266  0.64968351  0.87102204     0.06320
H3732       H  0.68707979  0.69471437  0.94253936     0.06170
C3733       C  0.80121677  0.58916056  0.75149794     0.03210
C3734       C  0.81764996  0.59534967  0.72568080    -0.12940
C3735       C  0.83671066  0.62053887  0.72413171     0.00710
C3736       C  0.84600425  0.63393152  0.75174913    -0.11470
C3737       C  0.83330127  0.62331377  0.77954152     0.03200
C3738       C  0.80982366  0.60204635  0.77840915    -0.10890
H3739       H  0.81053286  0.58392883  0.70541754     0.08800
H3740       H  0.86244482  0.65194733  0.75163094     0.06320
H3741       H  0.79650492  0.59688418  0.79831719     0.06170
O3742       O  0.85861299  0.64971913  0.94042852    -0.85270
O3743       O  0.90331659  0.68177152  0.90985162    -0.82310
C3744       C  0.92537705  0.66581007  0.90106835     0.98190
O3745       O  0.92129599  0.64510709  0.88221322    -0.82350
O3746       O  0.88999574  0.60425705  0.84707817    -0.84990
C3747       C  0.87965727  0.58238290  0.86246207     1.02720
O3748       O  0.85978389  0.58718946  0.88231379    -0.77760
O3749       O  0.82339946  0.62130987  0.92122399    -0.77940
C3750       C  0.83715557  0.63145083  0.94396260     1.02670
O3751       O  0.81336526  0.68064930  0.90720013    -0.85270
O3752       O  0.85805049  0.71235029  0.87627585    -0.82330
C3753       C  0.88014432  0.71608475  0.85875017     0.98210
O3754       O  0.89522748  0.69352747  0.84996520    -0.82360
O3755       O  0.86207824  0.65266787  0.81540775    -0.84960
C3756       C  0.84301173  0.63218758  0.81046797     1.02680
O3757       O  0.83254738  0.61678455  0.83229765    -0.77780
O3758       O  0.79749184  0.65116504  0.87117272    -0.77930
C3759       C  0.79210993  0.67072878  0.89094646     1.02650
Cr3760     Cr  0.85842001  0.67852674  0.90593504     1.93740
Cr3761     Cr  0.88946068  0.64900456  0.85104207     1.93210
Cr3762     Cr  0.83092189  0.62160071  0.87689076     1.39100
O3763       O  0.85956052  0.64977626  0.87796595    -1.23020
C3764       C  0.92220808  0.77055612  0.68602511     0.03210
C3765       C  0.91638077  0.74544382  0.66846496    -0.12940
C3766       C  0.89091703  0.74433522  0.64994808     0.00710
C3767       C  0.87610622  0.77176357  0.64258867    -0.11470
C3768       C  0.88554064  0.79895674  0.65643240     0.03200
C3769       C  0.90719388  0.79736449  0.67941462    -0.10890
H3770       H  0.92937881  0.72524703  0.67287693     0.08800
H3771       H  0.85797623  0.77198420  0.62637296     0.06320
H3772       H  0.91152472  0.81698265  0.69308708     0.06170
C3773       C  0.73414464  0.83309057  0.56411700     0.03210
C3774       C  0.70863791  0.85030226  0.57016995    -0.12940
C3775       C  0.70710150  0.86875578  0.59560700     0.00710
C3776       C  0.73445121  0.87720428  0.60965925    -0.11470
C3777       C  0.76196832  0.86411514  0.59975751     0.03200
C3778       C  0.76081568  0.84036451  0.57902075    -0.10890
H3779       H  0.68872634  0.84670699  0.55669151     0.08800
H3780       H  0.73439458  0.89388846  0.62732177     0.06320
H3781       H  0.78090606  0.82716761  0.57511387     0.06170
O3782       O  0.85575514  0.83390953  0.62721016    -0.85270
O3783       O  0.81469053  0.86614030  0.59259876    -0.82310
C3784       C  0.79245445  0.87528007  0.60807249     0.98190
O3785       O  0.79627670  0.89485459  0.62813786    -0.82350
O3786       O  0.82730764  0.92971537  0.66936279    -0.84990
C3787       C  0.83598940  0.91416812  0.69167366     1.02720
O3788       O  0.85497440  0.89338572  0.68796680    -0.77760
O3789       O  0.89026632  0.85183329  0.65724623    -0.77940
C3790       C  0.87577703  0.82967046  0.64685035     1.02670
O3791       O  0.90400993  0.86390933  0.59786552    -0.85270
O3792       O  0.86295569  0.89708820  0.56322118    -0.82330
C3793       C  0.84232329  0.91606076  0.55832528     0.98210
O3794       O  0.82634902  0.92546858  0.58006662    -0.82360
O3795       O  0.85917973  0.95868724  0.62195441    -0.85040
C3796       C  0.87762162  0.96310342  0.64303710     1.02680
O3797       O  0.88679562  0.94113810  0.65893484    -0.77780
O3798       O  0.92140802  0.89898740  0.62753895    -0.77930
C3799       C  0.92609920  0.87820270  0.60884934     1.02650
Cr3800     Cr  0.85931793  0.86789207  0.59771217     1.93740
Cr3801     Cr  0.82985651  0.92462599  0.62488826     1.93210
Cr3802     Cr  0.88582736  0.89641444  0.65527520     1.39100
O3803       O  0.85849366  0.89638575  0.62584653    -1.23020
C3804       C  0.79431636  0.95919826  0.74999473     0.03210
C3805       C  0.80172053  0.94453343  0.72322164    -0.12940
C3806       C  0.82520544  0.92328746  0.72204556     0.00710
C3807       C  0.83850011  0.91351276  0.74942674    -0.11470
C3808       C  0.83034564  0.92781067  0.77672118     0.03200
C3809       C  0.81163919  0.95319817  0.77538543    -0.10890
H3810       H  0.78851627  0.94881113  0.70323381     0.08800
H3811       H  0.85503825  0.89558996  0.74943657     0.06320
H3812       H  0.80737146  0.96622233  0.79549122     0.06170
C3813       C  0.91975366  0.77184112  0.80968615     0.03210
C3814       C  0.91474153  0.74715878  0.82838256    -0.12940
C3815       C  0.88989844  0.74641094  0.84791138     0.00710
C3816       C  0.87556265  0.77398088  0.85513921    -0.11470
C3817       C  0.88502815  0.80100530  0.84055615     0.03200
C3818       C  0.90571651  0.79911253  0.81657930    -0.10890
H3819       H  0.92781927  0.72696733  0.82431544     0.08800
H3820       H  0.85802210  0.77449827  0.87215699     0.06320
H3821       H  0.91015623  0.81877064  0.80268598     0.06170
C3822       C  0.73156277  0.83301206  0.93260044     0.03210
C3823       C  0.70640914  0.85078945  0.92695142    -0.12940
C3824       C  0.70530095  0.87017497  0.90193153     0.00710
C3825       C  0.73289409  0.87822040  0.88759803    -0.11470
C3826       C  0.76011326  0.86402920  0.89692364     0.03200
C3827       C  0.75832896  0.83983058  0.91738777    -0.10890
H3828       H  0.68641743  0.84693639  0.94048724     0.08800
H3829       H  0.73327155  0.89546973  0.87026226     0.06320
H3830       H  0.77804065  0.82599073  0.92101616     0.06170
O3831       O  0.82367275  0.92299046  0.91918619    -0.85270
O3832       O  0.85664673  0.95960477  0.87901088    -0.82310
C3833       C  0.87544275  0.96517076  0.85830241     0.98190
O3834       O  0.88692737  0.94357090  0.84350443    -0.82350
O3835       O  0.92041237  0.90050388  0.87528854    -0.84990
C3836       C  0.92469765  0.87844308  0.89275726     1.02720
O3837       O  0.90243277  0.86276018  0.90171098    -0.77760
O3838       O  0.85980911  0.89406873  0.93632691    -0.77940
C3839       C  0.83854033  0.91228987  0.94122946     1.02670
O3840       O  0.79571873  0.89454704  0.86902208    -0.85270
O3841       O  0.82859655  0.93124281  0.82979655    -0.82330
C3842       C  0.83962975  0.91757736  0.80730179     0.98210
O3843       O  0.85843449  0.89671468  0.81125053    -0.82360
O3844       O  0.89193963  0.85383913  0.84227847    -0.84960
C3845       C  0.87607498  0.83154566  0.85078361     1.02680
O3846       O  0.85492204  0.83522327  0.86941566    -0.77780
O3847       O  0.81277464  0.86493114  0.90457815    -0.77930
C3848       C  0.79102617  0.87468506  0.88887689     1.02650
Cr3849     Cr  0.82874498  0.92456017  0.87431368     1.93740
Cr3850     Cr  0.88687419  0.89857867  0.84564769     1.93210
Cr3851     Cr  0.85760660  0.86693073  0.90062485     1.39100
O3852       O  0.85790587  0.89688129  0.87366944    -1.23020
C3853       C  0.67088688  0.95553944  0.74955846     0.03210
C3854       C  0.65238534  0.95071044  0.77433378    -0.12940
C3855       C  0.63364933  0.92532888  0.77605298     0.00710
C3856       C  0.62568553  0.91093871  0.74862639    -0.11470
C3857       C  0.63969615  0.92053093  0.72116508     0.03200
C3858       C  0.66400147  0.94085223  0.72278440    -0.10890
H3859       H  0.65578874  0.96475893  0.79386554     0.08800
H3860       H  0.60874381  0.89339513  0.74855653     0.06320
H3861       H  0.67784316  0.94501265  0.70305020     0.06170
C3862       C  0.54829013  0.77507545  0.81269160     0.03210
C3863       C  0.56347623  0.74834597  0.81928972    -0.12940
C3864       C  0.58449845  0.74655535  0.84284777     0.00710
C3865       C  0.59382001  0.77380645  0.85689140    -0.11470
C3866       C  0.57922388  0.80137560  0.84922375     0.03200
C3867       C  0.55402533  0.80017747  0.83030421    -0.10890
H3868       H  0.55942490  0.72873811  0.80553024     0.08800
H3869       H  0.61147260  0.77348533  0.87362194     0.06320
H3870       H  0.54065852  0.82018394  0.82623764     0.06170
O3871       O  0.60550974  0.89540492  0.81269073    -0.85270
O3872       O  0.57337030  0.85441750  0.84897108    -0.82310
C3873       C  0.58851814  0.83225823  0.85903486     0.98190
O3874       O  0.60995165  0.83688829  0.87701672    -0.82350
O3875       O  0.65243429  0.87118570  0.90845947    -0.84990
C3876       C  0.67457689  0.88054551  0.89283894     1.02720
O3877       O  0.67005816  0.89837090  0.87112135    -0.77760
O3878       O  0.63589113  0.93055152  0.82893481    -0.77940
C3879       C  0.62442217  0.91599703  0.80727487     1.02670
O3880       O  0.57724585  0.94388340  0.84239001    -0.85270
O3881       O  0.54512233  0.90353719  0.87890378    -0.82330
C3882       C  0.54087416  0.88307950  0.89829401     0.98210
O3883       O  0.56295874  0.86754629  0.90753521    -0.82360
O3884       O  0.60500328  0.90261281  0.93727462    -0.84960
C3885       C  0.62589247  0.92147632  0.94081469     1.02680
O3886       O  0.64138099  0.93044025  0.91841384    -0.77780
O3887       O  0.60752483  0.96221094  0.87641279    -0.77930
C3888       C  0.58841280  0.96631033  0.85593915     1.02650
Cr3889     Cr  0.57792873  0.89926495  0.84824873     1.93740
Cr3890     Cr  0.60765965  0.87202617  0.90491160     1.93210
Cr3891     Cr  0.63612886  0.92777854  0.87380363     1.39100
O3892       O  0.60738148  0.89958132  0.87547407    -1.23020
C3893       C  0.67425234  0.58829632  0.75085923     0.03210
C3894       C  0.66404621  0.60000251  0.77794409    -0.12940
C3895       C  0.63947208  0.61991363  0.77872674     0.00710
C3896       C  0.62666036  0.62974661  0.75107123    -0.11470
C3897       C  0.63701596  0.61714772  0.72358818     0.03200
C3898       C  0.65813128  0.59376794  0.72474831    -0.10890
H3899       H  0.67684195  0.59535874  0.79818472     0.08800
H3900       H  0.60898126  0.64654910  0.75096202     0.06320
H3901       H  0.66657924  0.58370203  0.70418200     0.06170
O3902       O  0.63780754  0.61757123  0.92032345    -0.85270
O3903       O  0.60291155  0.58617887  0.87928911    -0.82310
C3904       C  0.58413652  0.58221709  0.85846714     0.98190
O3905       O  0.57603446  0.60424012  0.84210568    -0.82350
O3906       O  0.54476465  0.64807665  0.87428632    -0.84990
C3907       C  0.54111746  0.66929954  0.89267864     1.02720
O3908       O  0.56381326  0.68343227  0.90261497    -0.77760
O3909       O  0.60354562  0.64865784  0.93724551    -0.77940
C3910       C  0.62326743  0.62875489  0.94215532     1.02670
O3911       O  0.67048069  0.64511045  0.87282728    -0.85270
O3912       O  0.63627797  0.61282625  0.83123410    -0.82330
C3913       C  0.62813480  0.62871787  0.80891635     0.98210
O3914       O  0.60986980  0.65016506  0.81249160    -0.82360
O3915       O  0.57724615  0.69384062  0.84332809    -0.84960
C3916       C  0.59305053  0.71550198  0.85296889     1.02680
O3917       O  0.61329945  0.71053376  0.87223690    -0.77780
O3918       O  0.65297391  0.67592183  0.90697795    -0.77930
C3919       C  0.67515351  0.66423588  0.89318548     1.02650
Cr3920     Cr  0.63434500  0.61812278  0.87573887     1.93740
Cr3921     Cr  0.57954165  0.64897268  0.84564327     1.93210
Cr3922     Cr  0.60832730  0.67700971  0.90223248     1.39100
O3923       O  0.60744772  0.64808249  0.87453685    -1.23020
C3924       C  0.54931376  0.77416954  0.68991435     0.03210
C3925       C  0.56384548  0.74701930  0.68354466    -0.12940
C3926       C  0.58474489  0.74495767  0.65976473     0.00710
C3927       C  0.59444269  0.77196036  0.64519734    -0.11470
C3928       C  0.57991785  0.79955822  0.65214656     0.03200
C3929       C  0.55454561  0.79867704  0.67104919    -0.10890
H3930       H  0.55937284  0.72742140  0.69750024     0.08800
H3931       H  0.61222150  0.77139643  0.62843542     0.06320
H3932       H  0.54082716  0.81859813  0.67415273     0.06170
O3933       O  0.56435091  0.86560547  0.59273805    -0.85270
O3934       O  0.60737688  0.89816502  0.56062357    -0.82310
C3935       C  0.62860856  0.91658277  0.55660560     0.98190
O3936       O  0.64272726  0.92692520  0.57903337    -0.82350
O3937       O  0.60832069  0.95946684  0.62043562    -0.84990
C3938       C  0.58924881  0.96368633  0.64111090     1.02720
O3939       O  0.58005816  0.94158800  0.65684396    -0.77760
O3940       O  0.54721797  0.90159304  0.62177191    -0.77940
C3941       C  0.54259532  0.88150929  0.60234338     1.02670
O3942       O  0.61119987  0.83431903  0.62356491    -0.85270
O3943       O  0.65409417  0.86747598  0.59097285    -0.82330
C3944       C  0.67628956  0.87805101  0.60542100     0.98210
O3945       O  0.67186730  0.89651365  0.62642434    -0.82360
O3946       O  0.63859851  0.92897198  0.66853938    -0.84960
C3947       C  0.62909330  0.91273352  0.69024518     1.02680
O3948       O  0.60974073  0.89246176  0.68546939    -0.77780
O3949       O  0.57499905  0.85248729  0.65156928    -0.77930
C3950       C  0.58969865  0.83011463  0.64174213     1.02650
Cr3951     Cr  0.60927880  0.86889051  0.59463985     1.93740
Cr3952     Cr  0.63773554  0.92550032  0.62361720     1.93210
Cr3953     Cr  0.58060190  0.89700613  0.65143475     1.39100
O3954       O  0.60929810  0.89706037  0.62321826    -1.23020
O3955       O  0.54688820  0.64578460  0.62586486    -0.85270
O3956       O  0.57967099  0.60247001  0.65819298    -0.82310
C3957       C  0.59033735  0.58056844  0.64329997     0.98190
O3958       O  0.60854113  0.58559585  0.62203524    -0.82350
O3959       O  0.64135692  0.62066447  0.58102303    -0.84990
C3960       C  0.62706715  0.63249144  0.55918593     1.02720
O3961       O  0.60624252  0.65111325  0.56435350    -0.77760
O3962       O  0.56517023  0.68351468  0.59963478    -0.77940
C3963       C  0.54276267  0.66793547  0.60846642     1.02670
O3964       O  0.57674975  0.69227574  0.65820497    -0.85270
O3965       O  0.60952701  0.64881155  0.68922584    -0.82330
C3966       C  0.62785080  0.62749322  0.69304206     0.98210
O3967       O  0.63839631  0.61347555  0.67049140    -0.82360
O3968       O  0.67219315  0.64793974  0.62955720    -0.84960
C3969       C  0.67685941  0.66677016  0.60872595     1.02680
O3970       O  0.65467044  0.67825171  0.59488322    -0.77780
O3971       O  0.61420799  0.70984068  0.63101802    -0.77930
C3972       C  0.59317296  0.71416722  0.64965101     1.02650
Cr3973     Cr  0.58068753  0.64737259  0.65527501     1.93740
Cr3974     Cr  0.63757072  0.61952929  0.62585741     1.93210
Cr3975     Cr  0.60994722  0.67807877  0.59994265     1.39100
O3976       O  0.60936261  0.64819606  0.62695119    -1.23020
C3977       C  0.54154040  0.80567111  0.76682237    -0.21230
C3978       C  0.53392412  0.77941263  0.78287600    -0.09270
C3979       C  0.52063873  0.75541949  0.76716323     0.29590
C3980       C  0.52143444  0.75536090  0.73566800    -0.21230
C3981       C  0.53546466  0.77917231  0.71991245    -0.09280
C3982       C  0.54293740  0.80555008  0.73582909     0.29600
F3983       F  0.55684843  0.82948143  0.72257989    -0.19800
H3984       H  0.55140209  0.82500384  0.77778333     0.17960
H3985       H  0.51389188  0.73546836  0.72385902     0.17970
F3986       F  0.50975180  0.73093157  0.78208205    -0.19790
C3987       C  0.74811948  0.96476777  0.78040743    -0.21230
C3988       C  0.76394192  0.97265881  0.75407222    -0.09270
C3989       C  0.74771543  0.98526688  0.72990148     0.29590
C3990       C  0.71620799  0.98359874  0.72987460    -0.21230
C3991       C  0.70091188  0.96948271  0.75394510    -0.09280
C3992       C  0.71716707  0.96252754  0.78032663     0.29600
F3993       F  0.70440109  0.94846170  0.80445115    -0.19800
H3994       H  0.75933501  0.95538245  0.79990823     0.17960
H3995       H  0.70409769  0.99069122  0.70992594     0.17970
F3996       F  0.76221637  0.99649405  0.70531199    -0.19790
C3997       C  0.94783384  0.78966065  0.76365905    -0.21230
C3998       C  0.93230095  0.76671760  0.77925915    -0.09270
C3999       C  0.92275489  0.74108754  0.76328546     0.29590
C4000       C  0.92498606  0.74052851  0.73239231    -0.21230
C4001       C  0.93514597  0.76589847  0.71634177    -0.09280
C4002       C  0.94927164  0.78931164  0.73217784     0.29600
F4003       F  0.96174986  0.81303989  0.71727449    -0.19800
H4004       H  0.95637340  0.80908548  0.77556395     0.17960
H4005       H  0.91396482  0.72191789  0.72126507     0.17970
F4006       F  0.90639195  0.71865532  0.77640028    -0.19790
C4007       C  0.75351565  0.60276482  0.72920277    -0.21230
C4008       C  0.76927176  0.58239514  0.74740710    -0.09270
C4009       C  0.75349962  0.56102216  0.76482938     0.29590
C4010       C  0.72191271  0.56111522  0.76468684    -0.21230
C4011       C  0.70650128  0.58272820  0.74738821    -0.09280
C4012       C  0.72268357  0.60336308  0.72948495     0.29600
F4013       F  0.70883542  0.62635056  0.71463273    -0.19800
H4014       H  0.76515551  0.62029392  0.71658039     0.17960
H4015       H  0.70957174  0.54548149  0.77897739     0.17970
F4016       F  0.76852321  0.54132300  0.78276981    -0.19790
C4017       C  0.75125836  0.75593102  0.96077994    -0.21230
C4018       C  0.72666556  0.74040870  0.94836009    -0.09270
C4019       C  0.70003973  0.75670135  0.94228017     0.29590
C4020       C  0.70052222  0.78776180  0.94247389    -0.21230
C4021       C  0.72748500  0.80338470  0.94779231    -0.09280
C4022       C  0.75187625  0.78739300  0.96020498     0.29600
F4023       F  0.77739380  0.80181485  0.96865917    -0.19800
H4024       H  0.77136303  0.74389488  0.96760913     0.17960
H4025       H  0.68077533  0.79886141  0.93349804     0.17970
F4026       F  0.67501493  0.74367992  0.93066570    -0.19790
C4027       C  0.75463759  0.75577929  0.53773303    -0.21230
C4028       C  0.72965955  0.74035591  0.54996512    -0.09270
C4029       C  0.70283428  0.75678397  0.55488097     0.29590
C4030       C  0.70335692  0.78782391  0.55391063    -0.21230
C4031       C  0.73052714  0.80342578  0.54913153    -0.09280
C4032       C  0.75528428  0.78726172  0.53762030     0.29600
F4033       F  0.78101884  0.80153463  0.52914174    -0.19800
H4034       H  0.77490239  0.74369461  0.53143537     0.17960
H4035       H  0.68319391  0.79891038  0.56197894     0.17970
F4036       F  0.67728110  0.74406800  0.56605772    -0.19790
C4037       C  0.99646467  0.54335739  0.78836955    -0.21230
C4038       C  0.51192641  0.51885183  0.80136769    -0.09270
C4039       C  0.99551501  0.49232738  0.80797174     0.29590
C4040       C  0.96447895  0.49270215  0.80724577    -0.21230
C4041       C  0.94884364  0.51951917  0.80114266    -0.09280
C4042       C  0.96491947  0.54378722  0.78830199     0.29600
F4043       F  0.95039807  0.56888881  0.77854026    -0.19800
H4044       H  0.50857137  0.56337843  0.78121118     0.17960
H4045       H  0.95329662  0.97302114  0.81649581     0.17970
F4046       F  0.50831652  0.96749395  0.82050003    -0.19790
C4047       C  0.96543125  0.54786189  0.67634515    -0.21230
C4048       C  0.95007193  0.52705854  0.69463610    -0.09270
C4049       C  0.96648945  0.50724282  0.71315830     0.29590
C4050       C  0.99803185  0.50689952  0.71132601    -0.21230
C4051       C  0.51286798  0.52615545  0.69085801    -0.09280
C4052       C  0.99618475  0.54704258  0.67385811     0.29600
F4053       F  0.50909946  0.56420600  0.65184739    -0.19800
H4054       H  0.95352445  0.56267982  0.66097010     0.17960
H4055       H  0.51067574  0.49058292  0.72439514     0.17970
F4056       F  0.95203785  0.48718066  0.73131785    -0.19790
C4057       C  0.96641008  0.73820335  0.98567363    -0.21230
C4058       C  0.99051361  0.72471425  0.97005583    -0.09270
C4059       C  0.51715889  0.71812211  0.98608503     0.29590
C4060       C  0.51715676  0.71925068  0.51710347    -0.21230
C4061       C  0.99051568  0.72557933  0.53299380    -0.09280
C4062       C  0.96633904  0.73863078  0.51717523     0.29600
F4063       F  0.94153123  0.74873366  0.53196696    -0.19800
H4064       H  0.94636134  0.74538116  0.97379528     0.17960
H4065       H  0.53678363  0.70992701  0.52812400     0.17970
F4066       F  0.54159497  0.70513764  0.97302513    -0.19790
C4067       C  0.50206628  0.81052902  0.51655473    -0.21230
C4068       C  0.97791661  0.82390869  0.53219202    -0.09270
C4069       C  0.95132074  0.83063432  0.51617233     0.29590
C4070       C  0.95129326  0.82952935  0.98517636    -0.21230
C4071       C  0.97781650  0.82287583  0.96920707    -0.09280
C4072       C  0.50207489  0.80999259  0.98505593     0.29600
F4073       F  0.52679884  0.79966116  0.97028615    -0.19800
H4074       H  0.52211535  0.80335508  0.52843910     0.17960
H4075       H  0.93166126  0.83890467  0.97421309     0.17970
F4076       F  0.92690614  0.84362285  0.52927503    -0.19790
C4077       C  0.79463031  0.50545993  0.96953679    -0.21230
C4078       C  0.78572653  0.98895408  0.49526028    -0.09270
C4079       C  0.77156967  0.50446974  0.51898450     0.29590
C4080       C  0.77151573  0.53601500  0.51898847    -0.21230
C4081       C  0.78562956  0.55211177  0.49543467    -0.09280
C4082       C  0.79498346  0.53646251  0.96958778     0.29600
F4083       F  0.80949297  0.55000446  0.94615606    -0.19800
H4084       H  0.80566155  0.99469155  0.95066373     0.17960
H4085       H  0.76286989  0.54770798  0.53856097     0.17970
F4086       F  0.76019219  0.98934433  0.54313137    -0.19790
C4087       C  0.66219682  0.54199537  0.52784621    -0.21230
C4088       C  0.67870963  0.55812228  0.00617344    -0.09270
C4089       C  0.69704719  0.54254058  0.98560237     0.29590
C4090       C  0.69623632  0.51100583  0.98503471    -0.21230
C4091       C  0.67697290  0.99530249  0.50483156    -0.09280
C4092       C  0.66062909  0.51118680  0.52682240     0.29600
F4093       F  0.63965999  0.99754088  0.54469300    -0.19800
H4094       H  0.64711071  0.55328134  0.54340305     0.17960
H4095       H  0.70888983  0.99902795  0.96795317     0.17970
F4096       F  0.71379345  0.55777863  0.96489800    -0.19790
loop_ 
_geom_bond_atom_site_label_1 
_geom_bond_atom_site_label_2 
_geom_bond_distance 
_geom_bond_site_symmetry_2 
_ccdc_geom_bond_type 
C1            C2   1.385   1_556  A
C1          C518   1.391       .  A
C1          C507   1.466   1_556  S
C2            C3   1.400       .  A
C2            H7   1.085       .  S
C3          C516   1.419   1_554  A
C3          C351   1.490       .  S
C4            C5   1.423       .  A
C4          C515   1.419       .  A
C4            H8   1.083       .  S
C5            C6   1.405       .  A
C5          C301   1.485       .  S
C6          C513   1.391       .  A
C6            H9   1.084       .  S
C10          C11   1.399       .  A
C10         C527   1.390   1_554  A
C10         C497   1.483   1_554  S
C11          C12   1.406       .  A
C11          H16   1.083       .  S
C12          C13   1.421       .  A
C12         C132   1.486       .  S
C13         C526   1.416   1_554  A
C13          H17   1.082       .  S
C14          C15   1.400       .  A
C14         C525   1.416       .  A
C14         C166   1.490       .  S
C15         C522   1.390       .  A
C15          H18   1.083       .  S
C19          C24   1.387       .  A
C19        C2068   1.396       .  A
C19         C484   1.484       .  S
C20          C21   1.407       .  A
C20        C2067   1.396   1_455  A
C20          H25   1.083       .  S
C21        C2070   1.425   1_455  A
C21         C357   1.492       .  S
C22          C23   1.421       .  A
C22        C2069   1.425       .  A
C22          H26   1.082       .  S
C23          C24   1.402       .  A
C23         C215   1.496       .  S
C24          H27   1.083       .  S
C28          C29   1.399       .  A
C28        C2081   1.389       .  A
C28         C474   1.485       .  S
C29          C30   1.406       .  A
C29          H34   1.083       .  S
C30          C31   1.423       .  A
C30         C160   1.490       .  S
C31        C2080   1.418       .  A
C31          H35   1.083       .  S
C32          C33   1.401       .  A
C32        C2079   1.418   1_455  A
C32         C323   1.493       .  S
C33        C2076   1.389   1_455  A
C33          H36   1.082       .  S
C37          C38   1.394   1_556  A
C37         C554   1.390       .  A
C37         C494   1.483       .  S
C38          C39   1.407       .  A
C38          H43   1.082       .  S
C39          C40   1.428   1_554  A
C39         C209   1.499       .  S
C40         C553   1.427       .  A
C40          H44   1.082       .  S
C41          C42   1.402       .  A
C41         C552   1.427       .  A
C41         C255   1.502       .  S
C42         C549   1.390       .  A
C42          H45   1.083       .  S
C46          C51   1.387       .  A
C46         C559   1.384       .  A
C46         C504   1.468       .  S
C47          C48   1.402       .  A
C47         C558   1.384       .  A
C47          H52   1.084       .  S
C48          C49   1.426       .  A
C48         C376   1.497       .  S
C49         C562   1.428   1_554  A
C49          H53   1.082       .  S
C50          C51   1.408       .  A
C50         C561   1.428       .  A
C50         C326   1.495       .  S
C51          H54   1.084       .  S
C55          C60   1.391       .  A
C55        C2104   1.397       .  A
C55         C487   1.486       .  S
C56          C57   1.407       .  A
C56        C2103   1.397   1_455  A
C56          H61   1.082       .  S
C57        C2106   1.423   1_455  A
C57         C298   1.492       .  S
C58          C59   1.421       .  A
C58        C2105   1.423       .  A
C58          H62   1.083       .  S
C59          C60   1.402       .  A
C59         C252   1.495       .  S
C60          H63   1.083       .  S
C64          C69   1.397       .  A
C64        C2113   1.391       .  A
C64         C477   1.486       .  S
C65          C66   1.402       .  A
C65        C2112   1.391   1_455  A
C65          H70   1.083       .  S
C66        C2115   1.422   1_455  A
C66         C379   1.496       .  S
C67          C68   1.424       .  A
C67        C2114   1.422       .  A
C67          H71   1.083       .  S
C68          C69   1.407       .  A
C68         C135   1.493       .  S
C69          H72   1.082       .  S
C73          C78   1.386       .  A
C73        C1098   1.389   1_545  A
C73         C464   1.467       .  S
C74          C75   1.407       .  A
C74        C1097   1.389       .  A
C74          H79   1.084       .  S
C75        C1100   1.426       .  A
C75         C212   1.491       .  S
C76          C77   1.423       .  A
C76        C1099   1.426   1_545  A
C76          H80   1.082       .  S
C77          C78   1.402       .  A
C77         C129   1.494       .  S
C78          H81   1.084       .  S
C82          C83   1.399       .  A
C82        C1111   1.389   1_545  A
C82         C454   1.486       .  S
C83          C84   1.407       .  A
C83          H88   1.082       .  S
C84          C85   1.422       .  A
C84         C320   1.490       .  S
C85        C1110   1.419   1_545  A
C85          H89   1.082       .  S
C86          C87   1.400       .  A
C86        C1109   1.419       .  A
C86         C304   1.491       .  S
C87        C1106   1.389       .  A
C87          H90   1.082       .  S
C91          C92   1.395       .  A
C91        C1120   1.389   1_545  A
C91         C457   1.486       .  S
C92          C93   1.409       .  A
C92          H97   1.082       .  S
C93          C94   1.428       .  A
C93         C163   1.499       .  S
C94        C1119   1.426   1_545  A
C94          H98   1.082       .  S
C95          C96   1.403       .  A
C95        C1118   1.426       .  A
C95         C249   1.501       .  S
C96        C1115   1.389       .  A
C96          H99   1.083       .  S
C100        C101   1.383       .  A
C100       C1129   1.388   1_545  A
C100        C467   1.464       .  S
C101        C102   1.400       .  A
C101        H106   1.085       .  S
C102        C103   1.425       .  A
C102        C373   1.495       .  S
C103       C1128   1.428   1_545  A
C103        H107   1.083       .  S
C104        C105   1.407       .  A
C104       C1127   1.428       .  A
C104        C354   1.492       .  S
C105       C1124   1.388       .  A
C105        H108   1.084       .  S
C109        C110   1.398       .  A
C109        C114   1.388       .  A
C109        C444   1.488       .  S
C110        C111   1.405       .  A
C110        H115   1.082       .  S
C111        C112   1.425       .  A
C111        C123   1.491       .  S
C112        C113   1.421       .  A
C112        H116   1.083       .  S
C113        C114   1.402       .  A
C113        C385   1.495       .  S
C114        H117   1.082       .  S
O118       Cr136   2.001       .  S
O118        C126   1.272       .  A
O119       Cr136   2.002       .  S
O119        C120   1.261       .  A
C120        C151   1.501       .  S
C120        O121   1.270       .  A
O121       Cr137   1.993       .  S
O122       Cr137   1.994       .  S
O122        C123   1.259       .  A
C123        O124   1.268       .  A
O124       Cr138   2.001       .  S
O125       Cr138   1.991       .  S
O125        C126   1.261       .  A
C126        C182   1.492       .  S
O127       Cr136   1.996       .  S
O127        C135   1.260       .  A
O128       Cr136   1.996       .  S
O128        C129   1.270       .  A
C129        O130   1.260       .  A
O130       Cr137   1.993       .  S
O131       Cr137   2.009       .  S
O131        C132   1.270       .  A
C132        O133   1.260       .  A
O133       Cr138   1.985       .  S
O134       Cr138   1.997       .  S
O134        C135   1.267       .  A
Cr136       O139   1.785       .  S
Cr137       O139   1.786       .  S
Cr138       O139   1.784       .  S
C140        C141   1.395       .  A
C140        C145   1.387       .  A
C140        C434   1.485       .  S
C141        C142   1.405       .  A
C141        H146   1.082       .  S
C142        C143   1.428       .  A
C142        C175   1.494       .  S
C143        C144   1.424       .  A
C143        H147   1.082       .  S
C144        C145   1.403       .  A
C144        C335   1.499       .  S
C145        H148   1.082       .  S
C149        C150   1.382       .  A
C149        C154   1.384       .  A
C149        C424   1.461       .  S
C150        C151   1.403       .  A
C150        H155   1.084       .  S
C151        C152   1.429       .  A
C152        C153   1.432       .  A
C152        H156   1.082       .  S
C153        C154   1.407       .  A
C153        C172   1.497       .  S
C154        H157   1.084       .  S
O158       Cr176   1.989       .  S
O158        C166   1.259       .  A
O159       Cr176   2.006       .  S
O159        C160   1.270       .  A
C160        O161   1.261       .  A
O161       Cr177   1.989       .  S
O162       Cr177   1.996       .  S
O162        C163   1.268       .  A
C163        O164   1.263       .  A
O164       Cr178   2.008       .  S
O165       Cr178   1.996       .  S
O165        C166   1.268       .  A
O167       Cr176   2.002       .  S
O167        C175   1.271       .  A
O168       Cr176   1.991       .  S
O168        C169   1.259       .  A
C169        C231   1.490       .  S
C169        O170   1.267       .  A
O170       Cr177   1.993       .  S
O171       Cr177   2.006       .  S
O171        C172   1.263       .  A
C172        O173   1.269       .  A
O173       Cr178   1.995       .  S
O174       Cr178   1.997       .  S
O174        C175   1.261       .  A
Cr176       O179   1.787       .  S
Cr177       O179   1.782       .  S
Cr178       O179   1.784       .  S
C180        C181   1.390       .  A
C180        C185   1.394       .  A
C180        C417   1.480       .  S
C181        C182   1.402       .  A
C181        H186   1.083       .  S
C182        C183   1.421       .  A
C183        C184   1.422       .  A
C183        H187   1.082       .  S
C184        C185   1.407       .  A
C184        C206   1.491       .  S
C185        H188   1.083       .  S
C189        C190   1.392       .  A
C189        C194   1.398       .  A
C189        C447   1.488       .  S
C190        C191   1.401       .  A
C190        H195   1.082       .  S
C191        C192   1.419       .  A
C191        C360   1.492       .  S
C192        C193   1.421       .  A
C192        H196   1.082       .  S
C193        C194   1.406       .  A
C193        C200   1.490       .  S
C194        H197   1.081       .  S
O198       Cr216   1.998       .  S
O198        C206   1.261       .  A
O199       Cr216   1.996       .  S
O199        C200   1.268       .  A
C200        O201   1.261       .  A
O201       Cr217   1.996       .  S
O202       Cr217   1.993       .  S
O202        C203   1.266       .  A
C203        C222   1.488       .  S
C203        O204   1.260       .  A
O204       Cr218   1.995       .  S
O205       Cr218   1.990       .  S
O205        C206   1.266       .  A
O207       Cr216   1.991       .  S
O207        C215   1.269       .  A
O208       Cr216   2.006       .  S
O208        C209   1.263       .  A
C209        O210   1.268       .  A
O210       Cr217   1.998       .  S
O211       Cr217   1.998       .  S
O211        C212   1.263       .  A
C212        O213   1.268       .  A
O213       Cr218   1.994       .  S
O214       Cr218   2.001       .  S
O214        C215   1.262       .  A
Cr216       O219   1.784       .  S
Cr217       O219   1.786       .  S
Cr218       O219   1.787       .  S
C220        C221   1.397       .  A
C220        C225   1.392       .  A
C220        C404   1.485       .  S
C221        C222   1.407       .  A
C221        H226   1.082       .  S
C222        C223   1.420       .  A
C223        C224   1.418       .  A
C223        H227   1.082       .  S
C224        C225   1.401       .  A
C224        C258   1.489       .  S
C225        H228   1.083       .  S
C229        C230   1.388       .  A
C229        C234   1.397       .  A
C229        C414   1.478       .  S
C230        C231   1.400       .  A
C230        H235   1.084       .  S
C231        C232   1.417       .  A
C232        C233   1.422       .  A
C232        H236   1.083       .  S
C233        C234   1.406       .  A
C233        C261   1.486       .  S
C234        H237   1.083       .  S
C238        C239   1.390       .  A
C238        C243   1.396       .  A
C238        C437   1.485       .  S
C239        C240   1.402       .  A
C239        H244   1.082       .  S
C240        C241   1.422       .  A
C240        C292   1.495       .  S
C241        C242   1.424       .  A
C241        H245   1.082       .  S
C242        C243   1.405       .  A
C242        C264   1.492       .  S
C243        H246   1.081       .  S
O247       Cr265   2.006       .  S
O247        C255   1.273       .  A
O248       Cr265   2.001       .  S
O248        C249   1.262       .  A
C249        O250   1.271       .  A
O250       Cr266   1.999       .  S
O251       Cr266   1.994       .  S
O251        C252   1.260       .  A
C252        O253   1.269       .  A
O253       Cr267   1.998       .  S
O254       Cr267   2.000       .  S
O254        C255   1.262       .  A
O256       Cr265   1.996       .  S
O256        C264   1.260       .  A
O257       Cr265   1.998       .  S
O257        C258   1.269       .  A
C258        O259   1.259       .  A
O259       Cr266   1.988       .  S
O260       Cr266   2.005       .  S
O260        C261   1.269       .  A
C261        O262   1.260       .  A
O262       Cr267   1.986       .  S
O263       Cr267   1.998       .  S
O263        C264   1.268       .  A
Cr265       O268   1.785       .  S
Cr266       O268   1.786       .  S
Cr267       O268   1.783       .  S
C269        C270   1.385       .  A
C269        C274   1.395       .  A
C269        C407   1.483       .  S
C270        C271   1.402       .  A
C270        H275   1.083       .  S
C271        C272   1.425       .  A
C271        C295   1.500       .  S
C272        C273   1.429       .  A
C272        H276   1.082       .  S
C273        C274   1.408       .  A
C273        C363   1.497       .  S
C274        H277   1.083       .  S
C278        C279   1.395       .  A
C278        C283   1.390       .  A
C278        C394   1.484       .  S
C279        C280   1.407       .  A
C279        H284   1.082       .  S
C280        C281   1.427       .  A
C280        C332   1.497       .  S
C281        C282   1.425       .  A
C281        H285   1.082       .  S
C282        C283   1.403       .  A
C282        C289   1.500       .  S
C283        H286   1.083       .  S
O287       Cr305   2.002       .  S
O287        C295   1.262       .  A
O288       Cr305   2.001       .  S
O288        C289   1.271       .  A
C289        O290   1.262       .  A
O290       Cr306   2.001       .  S
O291       Cr306   1.994       .  S
O291        C292   1.268       .  A
C292        O293   1.260       .  A
O293       Cr307   1.997       .  S
O294       Cr307   1.996       .  S
O294        C295   1.271       .  A
O296       Cr305   1.996       .  S
O296        C304   1.269       .  A
O297       Cr305   1.998       .  S
O297        C298   1.261       .  A
C298        O299   1.267       .  A
O299       Cr306   1.996       .  S
O300       Cr306   1.987       .  S
O300        C301   1.260       .  A
C301        O302   1.268       .  A
O302       Cr307   2.001       .  S
O303       Cr307   1.991       .  S
O303        C304   1.259       .  A
Cr305       O308   1.785       .  S
Cr306       O308   1.785       .  S
Cr307       O308   1.788       .  S
C309        C310   1.388       .  A
C309        C314   1.386       .  A
C309        C427   1.460       .  S
C310        C311   1.404       .  A
C310        H315   1.084       .  S
C311        C312   1.422       .  A
C311        C329   1.485       .  S
C312        C313   1.421       .  A
C312        H316   1.083       .  S
C313        C314   1.399       .  A
C313        C382   1.488       .  S
C314        H317   1.085       .  S
O318       Cr336   1.987       .  S
O318        C326   1.266       .  A
O319       Cr336   1.994       .  S
O319        C320   1.261       .  A
C320        O321   1.267       .  A
O321       Cr337   1.999       .  S
O322       Cr337   1.996       .  S
O322        C323   1.261       .  A
C323        O324   1.269       .  A
O324       Cr338   1.996       .  S
O325       Cr338   2.005       .  S
O325        C326   1.262       .  A
O327       Cr336   2.005       .  S
O327        C335   1.262       .  A
O328       Cr336   1.994       .  S
O328        C329   1.267       .  A
C329        O330   1.261       .  A
O330       Cr337   1.991       .  S
O331       Cr337   1.996       .  S
O331        C332   1.268       .  A
C332        O333   1.262       .  A
O333       Cr338   2.002       .  S
O334       Cr338   1.994       .  S
O334        C335   1.270       .  A
Cr336       O339   1.788       .  S
Cr337       O339   1.788       .  S
Cr338       O339   1.785       .  S
C340        C341   1.397       .  A
C340        C345   1.388       .  A
C340        C397   1.483       .  S
C341        C342   1.406       .  A
C341        H346   1.083       .  S
C342        C343   1.424       .  A
C342        C388   1.489       .  S
C343        C344   1.420       .  A
C343        H347   1.083       .  S
C344        C345   1.402       .  A
C344        C366   1.494       .  S
C345        H348   1.083       .  S
O349       Cr367   2.001       .  S
O349        C357   1.270       .  A
O350       Cr367   1.989       .  S
O350        C351   1.259       .  A
C351        O352   1.268       .  A
O352       Cr368   1.992       .  S
O353       Cr368   1.999       .  S
O353        C354   1.261       .  A
C354        O355   1.267       .  A
O355       Cr369   1.995       .  S
O356       Cr369   1.997       .  S
O356        C357   1.262       .  A
O358       Cr367   1.997       .  S
O358        C366   1.260       .  A
O359       Cr367   1.995       .  S
O359        C360   1.270       .  A
C360        O361   1.261       .  A
O361       Cr368   1.991       .  S
O362       Cr368   2.003       .  S
O362        C363   1.270       .  A
C363        O364   1.263       .  A
O364       Cr369   2.003       .  S
O365       Cr369   1.992       .  S
O365        C366   1.267       .  A
Cr367       O370   1.788       .  S
Cr368       O370   1.785       .  S
Cr369       O370   1.782       .  S
O371       Cr389   1.995       .  S
O371        C379   1.261       .  A
O372       Cr389   1.997       .  S
O372        C373   1.270       .  A
C373        O374   1.259       .  A
O374       Cr390   1.990       .  S
O375       Cr390   1.998       .  S
O375        C376   1.272       .  A
C376        O377   1.261       .  A
O377       Cr391   1.997       .  S
O378       Cr391   2.002       .  S
O378        C379   1.270       .  A
O380       Cr389   2.006       .  S
O380        C388   1.270       .  A
O381       Cr389   1.984       .  S
O381        C382   1.259       .  A
C382        O383   1.270       .  A
O383       Cr390   1.999       .  S
O384       Cr390   1.996       .  S
O384        C385   1.259       .  A
C385        O386   1.268       .  A
O386       Cr391   1.996       .  S
O387       Cr391   1.989       .  S
O387        C388   1.260       .  A
Cr389       O392   1.785       .  S
Cr390       O392   1.786       .  S
Cr391       O392   1.783       .  S
C393        C394   1.403       .  A
C393        C398   1.378       .  A
C393        H400   1.083       .  S
C394        C395   1.408       .  A
C395        C396   1.399       .  A
C395        F402   1.357       .  S
C396        C397   1.407       .  A
C396        H401   1.084       .  S
C397        C398   1.412       .  A
C398        F399   1.358       .  S
C403        C404   1.404       .  A
C403        C408   1.377       .  A
C403        H410   1.082       .  S
C404        C405   1.408       .  A
C405        C406   1.400       .  A
C405        F412   1.357       .  S
C406        C407   1.407       .  A
C406        H411   1.083       .  S
C407        C408   1.411       .  A
C408        F409   1.358       .  S
C413        C414   1.407       .  A
C413        C418   1.400       .  A
C413        H420   1.084       .  S
C414        C415   1.411       .  A
C415        C416   1.376       .  A
C415        F422   1.359       .  S
C416        C417   1.402       .  A
C416        H421   1.083       .  S
C417        C418   1.408       .  A
C418        F419   1.357       .  S
C423        C424   1.399       .  A
C423        C428   1.368       .  A
C423        H430   1.085       .  S
C424        C425   1.405       .  A
C425        C426   1.402       .  A
C425        F432   1.357       .  S
C426        C427   1.405       .  A
C426        H431   1.084       .  S
C427        C428   1.404       .  A
C428        F429   1.360       .  S
C433        C434   1.407       .  A
C433        C438   1.397       .  A
C433        H440   1.083       .  S
C434        C435   1.412       .  A
C435        C436   1.379       .  A
C435        F442   1.357       .  S
C436        C437   1.404       .  A
C436        H441   1.082       .  S
C437        C438   1.407       .  A
C438        F439   1.356       .  S
C443        C444   1.408       .  A
C443        C448   1.398       .  A
C443        H450   1.084       .  S
C444        C445   1.413       .  A
C445        C446   1.379       .  A
C445        F452   1.357       .  S
C446        C447   1.405       .  A
C446        H451   1.082       .  S
C447        C448   1.408       .  A
C448        F449   1.356       .  S
C453        C458   1.400       .  A
C453       C2502   1.408       .  A
C453       H2508   1.084       .  S
C454       C2501   1.408   1_455  A
C454       C2503   1.413   1_445  A
C455        C456   1.378       .  A
C455       C2502   1.413   1_565  A
C455       F3534   1.358       .  S
C456        C457   1.404   1_565  A
C456       H1485   1.082       .  S
C457        C458   1.408       .  A
C458        F459   1.357       .  S
H460       C2501   1.084   1_455  S
H461       C1480   1.082       .  S
F462       C3527   1.358   1_455  S
C463        C464   1.401       .  A
C463        C468   1.369       .  A
C463        H470   1.084       .  S
C464        C465   1.406       .  A
C465        C466   1.402       .  A
C465        F472   1.357   1_545  S
C466       C2515   1.405       .  A
C466       H2519   1.084   1_545  S
C467       C2514   1.405   1_455  A
C467       C2516   1.405   1_455  A
C468       C2515   1.405       .  A
C468       F2517   1.360       .  S
F469       C2516   1.360   1_455  S
H471       C2514   1.084   1_465  S
C473        C474   1.408       .  A
C473        C990   1.399       .  A
C473        H480   1.083       .  S
C474       C2523   1.413       .  A
C475       C2522   1.413   1_455  A
C475        C988   1.379       .  A
C475        F482   1.358       .  S
C476        C987   1.379   1_554  A
C476       C2525   1.403   1_455  A
C476        H481   1.082       .  S
C477        C478   1.408       .  A
C477       C2524   1.403       .  A
C478        C985   1.399   1_554  A
C478        F479   1.357       .  S
C483       C2532   1.408   1_455  A
C483       C1000   1.400   1_554  A
C483        H490   1.083       .  S
C484        C485   1.412       .  A
C484       C2531   1.408       .  A
C485        C998   1.378   1_554  A
C485        F492   1.358       .  S
C486        C487   1.404       .  A
C486        C997   1.378       .  A
C486        H491   1.082       .  S
C487       C2536   1.408       .  A
C488        C995   1.400       .  A
C488       C2535   1.408   1_455  A
C488        F489   1.357       .  S
C493        C498   1.376       .  A
C493       C2030   1.402   1_545  A
C493       H1524   1.084   1_545  S
C494       C2029   1.402       .  A
C494       C1519   1.408   1_556  A
C495        C496   1.400       .  A
C495       C1518   1.408   1_544  A
C495       F1526   1.357   1_545  S
C496        C497   1.408   1_554  A
C496        H501   1.083       .  S
C497       C1010   1.412       .  A
C498       C1009   1.412       .  A
C498        F499   1.358       .  S
H500       C1517   1.084       .  S
F502       C1519   1.357       .  S
C503        C508   1.371       .  A
C503       C1016   1.400       .  A
C503        H510   1.085       .  S
C504        C505   1.406       .  A
C504       C1015   1.400       .  A
C505        C506   1.401       .  A
C505        F512   1.357       .  S
C506       C2043   1.405   1_545  A
C506       H1535   1.084   1_545  S
C507       C2042   1.405   1_554  A
C507       C1532   1.407       .  A
C508       C1531   1.407   1_545  A
C508       F1533   1.360   1_545  S
F509       C1532   1.360       .  S
H511       C1530   1.084       .  S
C513        C514   1.385       .  A
C513       C1019   1.466       .  S
C514        C515   1.400       .  A
C514        H519   1.085       .  S
C515        C863   1.490       .  S
C516        C517   1.423       .  A
C516        H520   1.083       .  S
C517        C518   1.405       .  A
C517        C813   1.485       .  S
C518        H521   1.084       .  S
C522        C523   1.399       .  A
C522       C1009   1.483       .  S
C523        C524   1.406       .  A
C523        H528   1.083       .  S
C524        C525   1.421       .  A
C524        C644   1.486       .  S
C525        H529   1.083       .  S
C526        C527   1.400       .  A
C526        C678   1.490       .  S
C527        H530   1.083       .  S
C531       C2580   1.396       .  A
C531        C536   1.387       .  A
C531        C996   1.484       .  S
C532       C2579   1.396   1_455  A
C532        C533   1.407       .  A
C532        H537   1.083       .  S
C533       C2582   1.425   1_455  A
C533        C869   1.492       .  S
C534       C2581   1.425       .  A
C534        C535   1.421       .  A
C534        H538   1.082       .  S
C535        C536   1.402       .  A
C535        C727   1.496       .  S
C536        H539   1.083       .  S
C540        C541   1.399       .  A
C540       C2593   1.389       .  A
C540        C986   1.485       .  S
C541        C542   1.406       .  A
C541        H546   1.083       .  S
C542        C543   1.423       .  A
C542        C672   1.490       .  S
C543       C2592   1.418       .  A
C543        H547   1.083       .  S
C544       C2591   1.418   1_455  A
C544        C545   1.401       .  A
C544        C835   1.493       .  S
C545       C2588   1.389   1_455  A
C545        H548   1.082       .  S
C549        C550   1.394       .  A
C549       C1006   1.483       .  S
C550        C551   1.407       .  A
C550        H555   1.083       .  S
C551        C552   1.428       .  A
C551        C721   1.499       .  S
C552        H556   1.082       .  S
C553        C554   1.402       .  A
C553        C767   1.502       .  S
C554        H557   1.083       .  S
C558        C563   1.387   1_554  A
C558       C1016   1.468       .  S
C559        C560   1.402       .  A
C559        H564   1.084       .  S
C560        C561   1.426       .  A
C560        C888   1.497       .  S
C561        H565   1.082       .  S
C562        C563   1.408       .  A
C562        C838   1.495       .  S
C563        H566   1.084       .  S
C567       C2616   1.397       .  A
C567        C572   1.391       .  A
C567        C999   1.486       .  S
C568       C2615   1.397   1_455  A
C568        C569   1.407       .  A
C568        H573   1.082       .  S
C569       C2618   1.423   1_455  A
C569        C810   1.492       .  S
C570       C2617   1.423       .  A
C570        C571   1.421       .  A
C570        H574   1.083       .  S
C571        C572   1.402       .  A
C571        C764   1.495       .  S
C572        H575   1.083       .  S
C576       C2625   1.391       .  A
C576        C581   1.397       .  A
C576        C989   1.486       .  S
C577       C2624   1.391   1_455  A
C577        C578   1.402       .  A
C577        H582   1.083       .  S
C578       C2627   1.422   1_455  A
C578        C891   1.495       .  S
C579       C2626   1.422       .  A
C579        C580   1.424       .  A
C579        H583   1.083       .  S
C580        C581   1.407       .  A
C580        C647   1.493       .  S
C581        H584   1.082       .  S
C585       C1610   1.389   1_545  A
C585        C590   1.386       .  A
C585        C976   1.467       .  S
C586       C1609   1.389       .  A
C586        C587   1.407       .  A
C586        H591   1.084       .  S
C587       C1612   1.426       .  A
C587        C724   1.491       .  S
C588       C1611   1.426   1_545  A
C588        C589   1.423       .  A
C588        H592   1.082       .  S
C589        C590   1.402       .  A
C589        C641   1.494       .  S
C590        H593   1.084       .  S
C594        C595   1.399       .  A
C594       C1623   1.389   1_545  A
C594        C966   1.486       .  S
C595        C596   1.407       .  A
C595        H600   1.082       .  S
C596        C597   1.422       .  A
C596        C832   1.490       .  S
C597       C1622   1.419   1_545  A
C597        H601   1.082       .  S
C598       C1621   1.419       .  A
C598        C599   1.400       .  A
C598        C816   1.491       .  S
C599       C1618   1.389       .  A
C599        H602   1.082       .  S
C603        C604   1.395       .  A
C603       C1632   1.389   1_545  A
C603        C969   1.486       .  S
C604        C605   1.409       .  A
C604        H609   1.082       .  S
C605        C606   1.428       .  A
C605        C675   1.499       .  S
C606       C1631   1.426   1_545  A
C606        H610   1.082       .  S
C607       C1630   1.426       .  A
C607        C608   1.403       .  A
C607        C761   1.501       .  S
C608       C1627   1.389       .  A
C608        H611   1.083       .  S
C612        C613   1.383       .  A
C612       C1641   1.388   1_545  A
C612        C979   1.464       .  S
C613        C614   1.400       .  A
C613        H618   1.085       .  S
C614        C615   1.425       .  A
C614        C885   1.495       .  S
C615       C1640   1.428   1_545  A
C615        H619   1.083       .  S
C616       C1639   1.428       .  A
C616        C617   1.407       .  A
C616        C866   1.492       .  S
C617       C1636   1.388       .  A
C617        H620   1.084       .  S
C621        C622   1.398       .  A
C621        C626   1.388       .  A
C621        C956   1.488       .  S
C622        C623   1.405       .  A
C622        H627   1.082       .  S
C623        C624   1.425       .  A
C623        C635   1.491       .  S
C624        C625   1.421       .  A
C624        H628   1.083       .  S
C625        C626   1.402       .  A
C625        C897   1.495       .  S
C626        H629   1.082       .  S
O630       Cr648   2.001       .  S
O630        C638   1.272       .  A
O631       Cr648   2.002       .  S
O631        C632   1.261       .  A
C632        C663   1.501       .  S
C632        O633   1.270       .  A
O633       Cr649   1.993       .  S
O634       Cr649   1.994       .  S
O634        C635   1.259       .  A
C635        O636   1.268       .  A
O636       Cr650   2.001       .  S
O637       Cr650   1.991       .  S
O637        C638   1.261       .  A
C638        C694   1.492       .  S
O639       Cr648   1.996       .  S
O639        C647   1.260       .  A
O640       Cr648   1.996       .  S
O640        C641   1.270       .  A
C641        O642   1.259       .  A
O642       Cr649   1.993       .  S
O643       Cr649   2.009       .  S
O643        C644   1.270       .  A
C644        O645   1.260       .  A
O645       Cr650   1.985       .  S
O646       Cr650   1.997       .  S
O646        C647   1.267       .  A
Cr648       O651   1.785       .  S
Cr649       O651   1.786       .  S
Cr650       O651   1.784       .  S
C652        C653   1.395       .  A
C652        C657   1.387       .  A
C652        C946   1.485       .  S
C653        C654   1.405       .  A
C653        H658   1.082       .  S
C654        C655   1.428       .  A
C654        C687   1.494       .  S
C655        C656   1.424       .  A
C655        H659   1.082       .  S
C656        C657   1.403       .  A
C656        C847   1.499       .  S
C657        H660   1.082       .  S
C661        C662   1.382       .  A
C661        C666   1.384       .  A
C661        C936   1.461       .  S
C662        C663   1.403       .  A
C662        H667   1.084       .  S
C663        C664   1.429       .  A
C664        C665   1.432       .  A
C664        H668   1.082       .  S
C665        C666   1.407       .  A
C665        C684   1.497       .  S
C666        H669   1.084       .  S
O670       Cr688   1.989       .  S
O670        C678   1.259       .  A
O671       Cr688   2.006       .  S
O671        C672   1.270       .  A
C672        O673   1.261       .  A
O673       Cr689   1.989       .  S
O674       Cr689   1.996       .  S
O674        C675   1.268       .  A
C675        O676   1.263       .  A
O676       Cr690   2.008       .  S
O677       Cr690   1.996       .  S
O677        C678   1.268       .  A
O679       Cr688   2.002       .  S
O679        C687   1.271       .  A
O680       Cr688   1.991       .  S
O680        C681   1.259       .  A
C681        C743   1.490       .  S
C681        O682   1.267       .  A
O682       Cr689   1.993       .  S
O683       Cr689   2.006       .  S
O683        C684   1.263       .  A
C684        O685   1.269       .  A
O685       Cr690   1.995       .  S
O686       Cr690   1.997       .  S
O686        C687   1.261       .  A
Cr688       O691   1.787       .  S
Cr689       O691   1.782       .  S
Cr690       O691   1.784       .  S
C692        C693   1.390       .  A
C692        C697   1.394       .  A
C692        C929   1.480       .  S
C693        C694   1.402       .  A
C693        H698   1.083       .  S
C694        C695   1.421       .  A
C695        C696   1.422       .  A
C695        H699   1.082       .  S
C696        C697   1.407       .  A
C696        C718   1.491       .  S
C697        H700   1.083       .  S
C701        C702   1.392       .  A
C701        C706   1.397       .  A
C701        C959   1.488       .  S
C702        C703   1.401       .  A
C702        H707   1.082       .  S
C703        C704   1.419       .  A
C703        C872   1.492       .  S
C704        C705   1.421       .  A
C704        H708   1.082       .  S
C705        C706   1.406       .  A
C705        C712   1.490       .  S
C706        H709   1.081       .  S
O710       Cr728   1.997       .  S
O710        C718   1.261       .  A
O711       Cr728   1.996       .  S
O711        C712   1.268       .  A
C712        O713   1.261       .  A
O713       Cr729   1.996       .  S
O714       Cr729   1.993       .  S
O714        C715   1.266       .  A
C715        C734   1.488       .  S
C715        O716   1.261       .  A
O716       Cr730   1.995       .  S
O717       Cr730   1.990       .  S
O717        C718   1.266       .  A
O719       Cr728   1.991       .  S
O719        C727   1.269       .  A
O720       Cr728   2.006       .  S
O720        C721   1.263       .  A
C721        O722   1.268       .  A
O722       Cr729   1.998       .  S
O723       Cr729   1.998       .  S
O723        C724   1.263       .  A
C724        O725   1.268       .  A
O725       Cr730   1.994       .  S
O726       Cr730   2.001       .  S
O726        C727   1.262       .  A
Cr728       O731   1.784       .  S
Cr729       O731   1.786       .  S
Cr730       O731   1.787       .  S
C732        C733   1.397       .  A
C732        C737   1.392       .  A
C732        C916   1.485       .  S
C733        C734   1.407       .  A
C733        H738   1.082       .  S
C734        C735   1.420       .  A
C735        C736   1.418       .  A
C735        H739   1.082       .  S
C736        C737   1.401       .  A
C736        C770   1.489       .  S
C737        H740   1.083       .  S
C741        C742   1.388       .  A
C741        C746   1.397       .  A
C741        C926   1.478       .  S
C742        C743   1.400       .  A
C742        H747   1.084       .  S
C743        C744   1.417       .  A
C744        C745   1.422       .  A
C744        H748   1.083       .  S
C745        C746   1.406       .  A
C745        C773   1.486       .  S
C746        H749   1.083       .  S
C750        C751   1.390       .  A
C750        C755   1.396       .  A
C750        C949   1.485       .  S
C751        C752   1.402       .  A
C751        H756   1.082       .  S
C752        C753   1.422       .  A
C752        C804   1.495       .  S
C753        C754   1.424       .  A
C753        H757   1.082       .  S
C754        C755   1.405       .  A
C754        C776   1.492       .  S
C755        H758   1.081       .  S
O759       Cr777   2.006       .  S
O759        C767   1.273       .  A
O760       Cr777   2.001       .  S
O760        C761   1.262       .  A
C761        O762   1.271       .  A
O762       Cr778   1.999       .  S
O763       Cr778   1.994       .  S
O763        C764   1.260       .  A
C764        O765   1.269       .  A
O765       Cr779   1.998       .  S
O766       Cr779   2.001       .  S
O766        C767   1.262       .  A
O768       Cr777   1.996       .  S
O768        C776   1.260       .  A
O769       Cr777   1.998       .  S
O769        C770   1.269       .  A
C770        O771   1.259       .  A
O771       Cr778   1.988       .  S
O772       Cr778   2.005       .  S
O772        C773   1.269       .  A
C773        O774   1.260       .  A
O774       Cr779   1.986       .  S
O775       Cr779   1.998       .  S
O775        C776   1.268       .  A
Cr777       O780   1.785       .  S
Cr778       O780   1.786       .  S
Cr779       O780   1.783       .  S
C781        C782   1.385       .  A
C781        C786   1.395       .  A
C781        C919   1.483       .  S
C782        C783   1.402       .  A
C782        H787   1.083       .  S
C783        C784   1.425       .  A
C783        C807   1.500       .  S
C784        C785   1.429       .  A
C784        H788   1.082       .  S
C785        C786   1.408       .  A
C785        C875   1.497       .  S
C786        H789   1.083       .  S
C790        C791   1.395       .  A
C790        C795   1.390       .  A
C790        C906   1.484       .  S
C791        C792   1.407       .  A
C791        H796   1.082       .  S
C792        C793   1.427       .  A
C792        C844   1.497       .  S
C793        C794   1.425       .  A
C793        H797   1.082       .  S
C794        C795   1.403       .  A
C794        C801   1.500       .  S
C795        H798   1.083       .  S
O799       Cr817   2.002       .  S
O799        C807   1.262       .  A
O800       Cr817   2.001       .  S
O800        C801   1.271       .  A
C801        O802   1.262       .  A
O802       Cr818   2.001       .  S
O803       Cr818   1.994       .  S
O803        C804   1.268       .  A
C804        O805   1.260       .  A
O805       Cr819   1.997       .  S
O806       Cr819   1.996       .  S
O806        C807   1.271       .  A
O808       Cr817   1.996       .  S
O808        C816   1.269       .  A
O809       Cr817   1.998       .  S
O809        C810   1.261       .  A
C810        O811   1.267       .  A
O811       Cr818   1.996       .  S
O812       Cr818   1.987       .  S
O812        C813   1.260       .  A
C813        O814   1.268       .  A
O814       Cr819   2.001       .  S
O815       Cr819   1.991       .  S
O815        C816   1.259       .  A
Cr817       O820   1.785       .  S
Cr818       O820   1.785       .  S
Cr819       O820   1.788       .  S
C821        C822   1.388       .  A
C821        C826   1.386       .  A
C821        C939   1.460       .  S
C822        C823   1.404       .  A
C822        H827   1.084       .  S
C823        C824   1.422       .  A
C823        C841   1.485       .  S
C824        C825   1.421       .  A
C824        H828   1.083       .  S
C825        C826   1.399       .  A
C825        C894   1.488       .  S
C826        H829   1.085       .  S
O830       Cr848   1.987       .  S
O830        C838   1.266       .  A
O831       Cr848   1.994       .  S
O831        C832   1.261       .  A
C832        O833   1.267       .  A
O833       Cr849   1.999       .  S
O834       Cr849   1.996       .  S
O834        C835   1.261       .  A
C835        O836   1.269       .  A
O836       Cr850   1.996       .  S
O837       Cr850   2.005       .  S
O837        C838   1.262       .  A
O839       Cr848   2.005       .  S
O839        C847   1.262       .  A
O840       Cr848   1.994       .  S
O840        C841   1.267       .  A
C841        O842   1.261       .  A
O842       Cr849   1.991       .  S
O843       Cr849   1.996       .  S
O843        C844   1.268       .  A
C844        O845   1.262       .  A
O845       Cr850   2.002       .  S
O846       Cr850   1.994       .  S
O846        C847   1.270       .  A
Cr848       O851   1.788       .  S
Cr849       O851   1.788       .  S
Cr850       O851   1.785       .  S
C852        C853   1.397       .  A
C852        C857   1.388       .  A
C852        C909   1.483       .  S
C853        C854   1.406       .  A
C853        H858   1.083       .  S
C854        C855   1.424       .  A
C854        C900   1.489       .  S
C855        C856   1.420       .  A
C855        H859   1.083       .  S
C856        C857   1.402       .  A
C856        C878   1.494       .  S
C857        H860   1.083       .  S
O861       Cr879   2.001       .  S
O861        C869   1.270       .  A
O862       Cr879   1.989       .  S
O862        C863   1.259       .  A
C863        O864   1.268       .  A
O864       Cr880   1.992       .  S
O865       Cr880   1.999       .  S
O865        C866   1.261       .  A
C866        O867   1.267       .  A
O867       Cr881   1.995       .  S
O868       Cr881   1.997       .  S
O868        C869   1.262       .  A
O870       Cr879   1.997       .  S
O870        C878   1.260       .  A
O871       Cr879   1.995       .  S
O871        C872   1.270       .  A
C872        O873   1.261       .  A
O873       Cr880   1.991       .  S
O874       Cr880   2.003       .  S
O874        C875   1.270       .  A
C875        O876   1.263       .  A
O876       Cr881   2.003       .  S
O877       Cr881   1.992       .  S
O877        C878   1.267       .  A
Cr879       O882   1.788       .  S
Cr880       O882   1.785       .  S
Cr881       O882   1.782       .  S
O883       Cr901   1.995       .  S
O883        C891   1.261       .  A
O884       Cr901   1.997       .  S
O884        C885   1.270       .  A
C885        O886   1.259       .  A
O886       Cr902   1.990       .  S
O887       Cr902   1.998       .  S
O887        C888   1.272       .  A
C888        O889   1.261       .  A
O889       Cr903   1.997       .  S
O890       Cr903   2.002       .  S
O890        C891   1.270       .  A
O892       Cr901   2.006       .  S
O892        C900   1.270       .  A
O893       Cr901   1.984       .  S
O893        C894   1.259       .  A
C894        O895   1.270       .  A
O895       Cr902   1.999       .  S
O896       Cr902   1.995       .  S
O896        C897   1.259       .  A
C897        O898   1.268       .  A
O898       Cr903   1.996       .  S
O899       Cr903   1.989       .  S
O899        C900   1.260       .  A
Cr901       O904   1.785       .  S
Cr902       O904   1.786       .  S
Cr903       O904   1.783       .  S
C905        C906   1.403       .  A
C905        C910   1.378       .  A
C905        H912   1.083       .  S
C906        C907   1.408       .  A
C907        C908   1.399       .  A
C907        F914   1.357       .  S
C908        C909   1.407       .  A
C908        H913   1.084       .  S
C909        C910   1.412       .  A
C910        F911   1.358       .  S
C915        C916   1.404       .  A
C915        C920   1.377       .  A
C915        H922   1.082       .  S
C916        C917   1.408       .  A
C917        C918   1.400       .  A
C917        F924   1.357       .  S
C918        C919   1.407       .  A
C918        H923   1.083       .  S
C919        C920   1.411       .  A
C920        F921   1.358       .  S
C925        C926   1.407       .  A
C925        C930   1.400       .  A
C925        H932   1.084       .  S
C926        C927   1.411       .  A
C927        C928   1.376       .  A
C927        F934   1.359       .  S
C928        C929   1.402       .  A
C928        H933   1.083       .  S
C929        C930   1.408       .  A
C930        F931   1.357       .  S
C935        C936   1.399       .  A
C935        C940   1.368       .  A
C935        H942   1.085       .  S
C936        C937   1.405       .  A
C937        C938   1.402       .  A
C937        F944   1.357       .  S
C938        C939   1.405       .  A
C938        H943   1.084       .  S
C939        C940   1.404       .  A
C940        F941   1.360       .  S
C945        C946   1.407       .  A
C945        C950   1.397       .  A
C945        H952   1.083       .  S
C946        C947   1.412       .  A
C947        C948   1.379       .  A
C947        F954   1.357       .  S
C948        C949   1.404       .  A
C948        H953   1.082       .  S
C949        C950   1.407       .  A
C950        F951   1.356       .  S
C955        C956   1.408       .  A
C955        C960   1.398       .  A
C955        H962   1.084       .  S
C956        C957   1.413       .  A
C957        C958   1.379       .  A
C957        F964   1.357       .  S
C958        C959   1.405       .  A
C958        H963   1.082       .  S
C959        C960   1.408       .  A
C960        F961   1.356       .  S
C965       C3014   1.408       .  A
C965        C970   1.400       .  A
C965       H3020   1.084       .  S
C966       C3013   1.408   1_455  A
C966       C3015   1.413   1_445  A
C967       C3014   1.413   1_565  A
C967        C968   1.378       .  A
C967       F4046   1.358       .  S
C968        C969   1.404   1_565  A
C968       H1997   1.082       .  S
C969        C970   1.408       .  A
C970        F971   1.357       .  S
H972       C3013   1.084   1_455  S
H973       C1992   1.082       .  S
F974       C4039   1.358   1_455  S
C975        C976   1.401       .  A
C975        C980   1.369       .  A
C975        H982   1.084       .  S
C976        C977   1.406       .  A
C977        C978   1.402       .  A
C977        F984   1.357   1_545  S
C978       C3027   1.405       .  A
C978       H3031   1.084   1_545  S
C979       C3026   1.405   1_455  A
C979       C3028   1.405   1_455  A
C980       C3027   1.405       .  A
C980       F3029   1.360       .  S
F981       C3028   1.360   1_455  S
H983       C3026   1.084   1_465  S
C985        C986   1.408       .  A
C985        H992   1.083       .  S
C986       C3035   1.413       .  A
C987       C3034   1.413   1_455  A
C987        F994   1.358       .  S
C988       C3037   1.403   1_455  A
C988        H993   1.082       .  S
C989       C3036   1.403       .  A
C989        C990   1.408       .  A
C990        F991   1.357       .  S
C995       C3044   1.408   1_455  A
C995       H1002   1.083       .  S
C996       C3043   1.408       .  A
C996        C997   1.412       .  A
C997       F1004   1.358       .  S
C998        C999   1.404       .  A
C998       H1003   1.082       .  S
C999       C3048   1.408       .  A
C1000      C3047   1.408   1_455  A
C1000      F1001   1.357       .  S
C1005      C1518   1.402   1_545  A
C1005      C1010   1.376       .  A
C1005      H2036   1.083   1_545  S
C1006      C1517   1.402       .  A
C1006      C2031   1.408       .  A
C1007      C2030   1.408   1_545  A
C1007      C1008   1.400       .  A
C1007      F2038   1.357   1_545  S
C1008      C1009   1.408       .  A
C1008      H1013   1.084       .  S
C1010      F1011   1.358       .  S
H1012      C2029   1.083       .  S
F1014      C2031   1.357       .  S
C1015      C1020   1.371       .  A
C1015      H1022   1.085       .  S
C1016      C1017   1.406   1_554  A
C1017      C1018   1.401       .  A
C1017      F1024   1.357       .  S
C1018      C1531   1.405   1_546  A
C1018      H2047   1.084   1_545  S
C1019      C1530   1.405       .  A
C1019      C2044   1.407       .  A
C1020      C2043   1.407   1_545  A
C1020      F2045   1.360   1_545  S
F1021      C2044   1.360       .  S
H1023      C2042   1.084       .  S
C1025      C1026   1.385   1_556  A
C1025      C1542   1.391       .  A
C1025      C1531   1.466   1_556  S
C1026      C1027   1.400       .  A
C1026      H1031   1.085       .  S
C1027      C1540   1.419   1_554  A
C1027      C1375   1.490       .  S
C1028      C1539   1.419       .  A
C1028      C1029   1.423       .  A
C1028      H1032   1.083       .  S
C1029      C1030   1.405       .  A
C1029      C1325   1.485       .  S
C1030      C1537   1.391       .  A
C1030      H1033   1.084       .  S
C1034      C1035   1.399       .  A
C1034      C1551   1.390   1_554  A
C1034      C1521   1.483   1_554  S
C1035      C1036   1.406       .  A
C1035      H1040   1.083       .  S
C1036      C1037   1.421       .  A
C1036      C1156   1.486       .  S
C1037      C1550   1.416   1_554  A
C1037      H1041   1.082       .  S
C1038      C1549   1.416       .  A
C1038      C1039   1.400       .  A
C1038      C1190   1.490       .  S
C1039      C1546   1.390       .  A
C1039      H1042   1.083       .  S
C1043      C3092   1.396       .  A
C1043      C1048   1.387       .  A
C1043      C1508   1.484       .  S
C1044      C3091   1.396   1_455  A
C1044      C1045   1.407       .  A
C1044      H1049   1.083       .  S
C1045      C3094   1.425   1_455  A
C1045      C1381   1.492       .  S
C1046      C3093   1.425       .  A
C1046      C1047   1.421       .  A
C1046      H1050   1.082       .  S
C1047      C1048   1.402       .  A
C1047      C1239   1.496       .  S
C1048      H1051   1.083       .  S
C1052      C1053   1.399       .  A
C1052      C3105   1.389       .  A
C1052      C1498   1.485       .  S
C1053      C1054   1.406       .  A
C1053      H1058   1.083       .  S
C1054      C1055   1.423       .  A
C1054      C1184   1.490       .  S
C1055      C3104   1.418       .  A
C1055      H1059   1.083       .  S
C1056      C3103   1.418   1_455  A
C1056      C1057   1.401       .  A
C1056      C1347   1.493       .  S
C1057      C3100   1.389   1_455  A
C1057      H1060   1.082       .  S
C1061      C1062   1.394   1_556  A
C1061      C1578   1.390       .  A
C1061      C1518   1.483       .  S
C1062      C1063   1.407       .  A
C1062      H1067   1.082       .  S
C1063      C1064   1.428   1_554  A
C1063      C1233   1.499       .  S
C1064      C1577   1.427       .  A
C1064      H1068   1.082       .  S
C1065      C1576   1.427       .  A
C1065      C1066   1.402       .  A
C1065      C1279   1.502       .  S
C1066      C1573   1.390       .  A
C1066      H1069   1.083       .  S
C1070      C1583   1.384       .  A
C1070      C1075   1.387       .  A
C1070      C1528   1.468       .  S
C1071      C1582   1.384       .  A
C1071      C1072   1.402       .  A
C1071      H1076   1.084       .  S
C1072      C1073   1.426       .  A
C1072      C1400   1.497       .  S
C1073      C1586   1.428   1_554  A
C1073      H1077   1.082       .  S
C1074      C1585   1.428       .  A
C1074      C1075   1.408       .  A
C1074      C1350   1.495       .  S
C1075      H1078   1.084       .  S
C1079      C3128   1.397       .  A
C1079      C1084   1.391       .  A
C1079      C1511   1.486       .  S
C1080      C3127   1.397   1_455  A
C1080      C1081   1.407       .  A
C1080      H1085   1.082       .  S
C1081      C3130   1.423   1_455  A
C1081      C1322   1.492       .  S
C1082      C3129   1.423       .  A
C1082      C1083   1.421       .  A
C1082      H1086   1.083       .  S
C1083      C1084   1.402       .  A
C1083      C1276   1.495       .  S
C1084      H1087   1.083       .  S
C1088      C3137   1.391       .  A
C1088      C1093   1.397       .  A
C1088      C1501   1.486       .  S
C1089      C3136   1.391   1_455  A
C1089      C1090   1.402       .  A
C1089      H1094   1.083       .  S
C1090      C3139   1.422   1_455  A
C1090      C1403   1.496       .  S
C1091      C3138   1.422       .  A
C1091      C1092   1.424       .  A
C1091      H1095   1.083       .  S
C1092      C1093   1.407       .  A
C1092      C1159   1.493       .  S
C1093      H1096   1.082       .  S
C1097      C1102   1.386       .  A
C1097      C1488   1.467       .  S
C1098      C1099   1.407       .  A
C1098      H1103   1.084       .  S
C1099      C1236   1.491       .  S
C1100      C1101   1.423       .  A
C1100      H1104   1.082       .  S
C1101      C1102   1.402       .  A
C1101      C1153   1.494       .  S
C1102      H1105   1.084       .  S
C1106      C1107   1.399       .  A
C1106      C1478   1.486       .  S
C1107      C1108   1.407       .  A
C1107      H1112   1.082       .  S
C1108      C1109   1.422       .  A
C1108      C1344   1.490       .  S
C1109      H1113   1.082       .  S
C1110      C1111   1.400       .  A
C1110      C1328   1.491       .  S
C1111      H1114   1.082       .  S
C1115      C1116   1.395       .  A
C1115      C1481   1.486       .  S
C1116      C1117   1.409       .  A
C1116      H1121   1.082       .  S
C1117      C1118   1.428       .  A
C1117      C1187   1.499       .  S
C1118      H1122   1.082       .  S
C1119      C1120   1.403       .  A
C1119      C1273   1.501       .  S
C1120      H1123   1.083       .  S
C1124      C1125   1.383       .  A
C1124      C1491   1.464       .  S
C1125      C1126   1.400       .  A
C1125      H1130   1.085       .  S
C1126      C1127   1.425       .  A
C1126      C1397   1.495       .  S
C1127      H1131   1.083       .  S
C1128      C1129   1.407       .  A
C1128      C1378   1.492       .  S
C1129      H1132   1.084       .  S
C1133      C1134   1.398       .  A
C1133      C1138   1.388       .  A
C1133      C1468   1.488       .  S
C1134      C1135   1.405       .  A
C1134      H1139   1.082       .  S
C1135      C1136   1.425       .  A
C1135      C1147   1.491       .  S
C1136      C1137   1.421       .  A
C1136      H1140   1.083       .  S
C1137      C1138   1.402       .  A
C1137      C1409   1.495       .  S
C1138      H1141   1.082       .  S
O1142     Cr1160   2.001       .  S
O1142      C1150   1.272       .  A
O1143     Cr1160   2.002       .  S
O1143      C1144   1.261       .  A
C1144      C1175   1.501       .  S
C1144      O1145   1.270       .  A
O1145     Cr1161   1.993       .  S
O1146     Cr1161   1.994       .  S
O1146      C1147   1.259       .  A
C1147      O1148   1.268       .  A
O1148     Cr1162   2.001       .  S
O1149     Cr1162   1.991       .  S
O1149      C1150   1.261       .  A
C1150      C1206   1.492       .  S
O1151     Cr1160   1.996       .  S
O1151      C1159   1.260       .  A
O1152     Cr1160   1.996       .  S
O1152      C1153   1.270       .  A
C1153      O1154   1.260       .  A
O1154     Cr1161   1.993       .  S
O1155     Cr1161   2.009       .  S
O1155      C1156   1.270       .  A
C1156      O1157   1.260       .  A
O1157     Cr1162   1.985       .  S
O1158     Cr1162   1.997       .  S
O1158      C1159   1.267       .  A
Cr1160     O1163   1.785       .  S
Cr1161     O1163   1.786       .  S
Cr1162     O1163   1.784       .  S
C1164      C1165   1.395       .  A
C1164      C1169   1.387       .  A
C1164      C1458   1.485       .  S
C1165      C1166   1.405       .  A
C1165      H1170   1.082       .  S
C1166      C1167   1.428       .  A
C1166      C1199   1.494       .  S
C1167      C1168   1.424       .  A
C1167      H1171   1.082       .  S
C1168      C1169   1.403       .  A
C1168      C1359   1.499       .  S
C1169      H1172   1.082       .  S
C1173      C1174   1.382       .  A
C1173      C1178   1.384       .  A
C1173      C1448   1.461       .  S
C1174      C1175   1.403       .  A
C1174      H1179   1.084       .  S
C1175      C1176   1.429       .  A
C1176      C1177   1.432       .  A
C1176      H1180   1.082       .  S
C1177      C1178   1.407       .  A
C1177      C1196   1.497       .  S
C1178      H1181   1.084       .  S
O1182     Cr1200   1.989       .  S
O1182      C1190   1.259       .  A
O1183     Cr1200   2.006       .  S
O1183      C1184   1.270       .  A
C1184      O1185   1.261       .  A
O1185     Cr1201   1.989       .  S
O1186     Cr1201   1.996       .  S
O1186      C1187   1.268       .  A
C1187      O1188   1.263       .  A
O1188     Cr1202   2.008       .  S
O1189     Cr1202   1.996       .  S
O1189      C1190   1.268       .  A
O1191     Cr1200   2.002       .  S
O1191      C1199   1.271       .  A
O1192     Cr1200   1.991       .  S
O1192      C1193   1.259       .  A
C1193      C1255   1.490       .  S
C1193      O1194   1.267       .  A
O1194     Cr1201   1.993       .  S
O1195     Cr1201   2.006       .  S
O1195      C1196   1.263       .  A
C1196      O1197   1.269       .  A
O1197     Cr1202   1.995       .  S
O1198     Cr1202   1.997       .  S
O1198      C1199   1.261       .  A
Cr1200     O1203   1.787       .  S
Cr1201     O1203   1.782       .  S
Cr1202     O1203   1.784       .  S
C1204      C1205   1.390       .  A
C1204      C1209   1.394       .  A
C1204      C1441   1.480       .  S
C1205      C1206   1.402       .  A
C1205      H1210   1.083       .  S
C1206      C1207   1.421       .  A
C1207      C1208   1.422       .  A
C1207      H1211   1.082       .  S
C1208      C1209   1.407       .  A
C1208      C1230   1.491       .  S
C1209      H1212   1.083       .  S
C1213      C1214   1.392       .  A
C1213      C1218   1.398       .  A
C1213      C1471   1.488       .  S
C1214      C1215   1.401       .  A
C1214      H1219   1.082       .  S
C1215      C1216   1.419       .  A
C1215      C1384   1.492       .  S
C1216      C1217   1.421       .  A
C1216      H1220   1.082       .  S
C1217      C1218   1.406       .  A
C1217      C1224   1.490       .  S
C1218      H1221   1.081       .  S
O1222     Cr1240   1.998       .  S
O1222      C1230   1.261       .  A
O1223     Cr1240   1.996       .  S
O1223      C1224   1.268       .  A
C1224      O1225   1.261       .  A
O1225     Cr1241   1.996       .  S
O1226     Cr1241   1.993       .  S
O1226      C1227   1.266       .  A
C1227      C1246   1.488       .  S
C1227      O1228   1.260       .  A
O1228     Cr1242   1.995       .  S
O1229     Cr1242   1.990       .  S
O1229      C1230   1.266       .  A
O1231     Cr1240   1.991       .  S
O1231      C1239   1.269       .  A
O1232     Cr1240   2.006       .  S
O1232      C1233   1.263       .  A
C1233      O1234   1.268       .  A
O1234     Cr1241   1.998       .  S
O1235     Cr1241   1.998       .  S
O1235      C1236   1.263       .  A
C1236      O1237   1.268       .  A
O1237     Cr1242   1.994       .  S
O1238     Cr1242   2.001       .  S
O1238      C1239   1.262       .  A
Cr1240     O1243   1.784       .  S
Cr1241     O1243   1.786       .  S
Cr1242     O1243   1.787       .  S
C1244      C1245   1.397       .  A
C1244      C1249   1.392       .  A
C1244      C1428   1.485       .  S
C1245      C1246   1.407       .  A
C1245      H1250   1.082       .  S
C1246      C1247   1.420       .  A
C1247      C1248   1.418       .  A
C1247      H1251   1.082       .  S
C1248      C1249   1.401       .  A
C1248      C1282   1.489       .  S
C1249      H1252   1.083       .  S
C1253      C1254   1.388       .  A
C1253      C1258   1.397       .  A
C1253      C1438   1.478       .  S
C1254      C1255   1.400       .  A
C1254      H1259   1.084       .  S
C1255      C1256   1.417       .  A
C1256      C1257   1.422       .  A
C1256      H1260   1.083       .  S
C1257      C1258   1.406       .  A
C1257      C1285   1.486       .  S
C1258      H1261   1.083       .  S
C1262      C1263   1.390       .  A
C1262      C1267   1.396       .  A
C1262      C1461   1.485       .  S
C1263      C1264   1.402       .  A
C1263      H1268   1.082       .  S
C1264      C1265   1.422       .  A
C1264      C1316   1.495       .  S
C1265      C1266   1.424       .  A
C1265      H1269   1.082       .  S
C1266      C1267   1.405       .  A
C1266      C1288   1.492       .  S
C1267      H1270   1.081       .  S
O1271     Cr1289   2.006       .  S
O1271      C1279   1.273       .  A
O1272     Cr1289   2.001       .  S
O1272      C1273   1.262       .  A
C1273      O1274   1.271       .  A
O1274     Cr1290   1.999       .  S
O1275     Cr1290   1.994       .  S
O1275      C1276   1.260       .  A
C1276      O1277   1.269       .  A
O1277     Cr1291   1.998       .  S
O1278     Cr1291   2.000       .  S
O1278      C1279   1.262       .  A
O1280     Cr1289   1.996       .  S
O1280      C1288   1.260       .  A
O1281     Cr1289   1.998       .  S
O1281      C1282   1.269       .  A
C1282      O1283   1.259       .  A
O1283     Cr1290   1.988       .  S
O1284     Cr1290   2.005       .  S
O1284      C1285   1.269       .  A
C1285      O1286   1.260       .  A
O1286     Cr1291   1.986       .  S
O1287     Cr1291   1.998       .  S
O1287      C1288   1.268       .  A
Cr1289     O1292   1.785       .  S
Cr1290     O1292   1.786       .  S
Cr1291     O1292   1.783       .  S
C1293      C1294   1.385       .  A
C1293      C1298   1.395       .  A
C1293      C1431   1.483       .  S
C1294      C1295   1.402       .  A
C1294      H1299   1.083       .  S
C1295      C1296   1.425       .  A
C1295      C1319   1.500       .  S
C1296      C1297   1.429       .  A
C1296      H1300   1.082       .  S
C1297      C1298   1.408       .  A
C1297      C1387   1.497       .  S
C1298      H1301   1.083       .  S
C1302      C1303   1.395       .  A
C1302      C1307   1.390       .  A
C1302      C1418   1.484       .  S
C1303      C1304   1.407       .  A
C1303      H1308   1.082       .  S
C1304      C1305   1.427       .  A
C1304      C1356   1.497       .  S
C1305      C1306   1.425       .  A
C1305      H1309   1.082       .  S
C1306      C1307   1.403       .  A
C1306      C1313   1.500       .  S
C1307      H1310   1.083       .  S
O1311     Cr1329   2.002       .  S
O1311      C1319   1.262       .  A
O1312     Cr1329   2.001       .  S
O1312      C1313   1.271       .  A
C1313      O1314   1.262       .  A
O1314     Cr1330   2.001       .  S
O1315     Cr1330   1.994       .  S
O1315      C1316   1.268       .  A
C1316      O1317   1.260       .  A
O1317     Cr1331   1.997       .  S
O1318     Cr1331   1.996       .  S
O1318      C1319   1.271       .  A
O1320     Cr1329   1.996       .  S
O1320      C1328   1.269       .  A
O1321     Cr1329   1.998       .  S
O1321      C1322   1.261       .  A
C1322      O1323   1.267       .  A
O1323     Cr1330   1.996       .  S
O1324     Cr1330   1.987       .  S
O1324      C1325   1.260       .  A
C1325      O1326   1.268       .  A
O1326     Cr1331   2.001       .  S
O1327     Cr1331   1.991       .  S
O1327      C1328   1.259       .  A
Cr1329     O1332   1.785       .  S
Cr1330     O1332   1.785       .  S
Cr1331     O1332   1.788       .  S
C1333      C1334   1.388       .  A
C1333      C1338   1.386       .  A
C1333      C1451   1.460       .  S
C1334      C1335   1.404       .  A
C1334      H1339   1.084       .  S
C1335      C1336   1.422       .  A
C1335      C1353   1.485       .  S
C1336      C1337   1.421       .  A
C1336      H1340   1.083       .  S
C1337      C1338   1.399       .  A
C1337      C1406   1.488       .  S
C1338      H1341   1.085       .  S
O1342     Cr1360   1.987       .  S
O1342      C1350   1.266       .  A
O1343     Cr1360   1.994       .  S
O1343      C1344   1.261       .  A
C1344      O1345   1.267       .  A
O1345     Cr1361   1.999       .  S
O1346     Cr1361   1.996       .  S
O1346      C1347   1.261       .  A
C1347      O1348   1.269       .  A
O1348     Cr1362   1.996       .  S
O1349     Cr1362   2.005       .  S
O1349      C1350   1.262       .  A
O1351     Cr1360   2.005       .  S
O1351      C1359   1.262       .  A
O1352     Cr1360   1.994       .  S
O1352      C1353   1.267       .  A
C1353      O1354   1.261       .  A
O1354     Cr1361   1.991       .  S
O1355     Cr1361   1.996       .  S
O1355      C1356   1.268       .  A
C1356      O1357   1.262       .  A
O1357     Cr1362   2.002       .  S
O1358     Cr1362   1.994       .  S
O1358      C1359   1.270       .  A
Cr1360     O1363   1.788       .  S
Cr1361     O1363   1.788       .  S
Cr1362     O1363   1.785       .  S
C1364      C1365   1.397       .  A
C1364      C1369   1.388       .  A
C1364      C1421   1.483       .  S
C1365      C1366   1.406       .  A
C1365      H1370   1.083       .  S
C1366      C1367   1.424       .  A
C1366      C1412   1.489       .  S
C1367      C1368   1.420       .  A
C1367      H1371   1.083       .  S
C1368      C1369   1.402       .  A
C1368      C1390   1.494       .  S
C1369      H1372   1.083       .  S
O1373     Cr1391   2.001       .  S
O1373      C1381   1.270       .  A
O1374     Cr1391   1.989       .  S
O1374      C1375   1.259       .  A
C1375      O1376   1.268       .  A
O1376     Cr1392   1.992       .  S
O1377     Cr1392   1.999       .  S
O1377      C1378   1.261       .  A
C1378      O1379   1.267       .  A
O1379     Cr1393   1.995       .  S
O1380     Cr1393   1.997       .  S
O1380      C1381   1.262       .  A
O1382     Cr1391   1.997       .  S
O1382      C1390   1.260       .  A
O1383     Cr1391   1.995       .  S
O1383      C1384   1.270       .  A
C1384      O1385   1.261       .  A
O1385     Cr1392   1.991       .  S
O1386     Cr1392   2.003       .  S
O1386      C1387   1.270       .  A
C1387      O1388   1.263       .  A
O1388     Cr1393   2.003       .  S
O1389     Cr1393   1.992       .  S
O1389      C1390   1.267       .  A
Cr1391     O1394   1.788       .  S
Cr1392     O1394   1.785       .  S
Cr1393     O1394   1.782       .  S
O1395     Cr1413   1.995       .  S
O1395      C1403   1.261       .  A
O1396     Cr1413   1.997       .  S
O1396      C1397   1.270       .  A
C1397      O1398   1.259       .  A
O1398     Cr1414   1.990       .  S
O1399     Cr1414   1.998       .  S
O1399      C1400   1.272       .  A
C1400      O1401   1.261       .  A
O1401     Cr1415   1.997       .  S
O1402     Cr1415   2.002       .  S
O1402      C1403   1.270       .  A
O1404     Cr1413   2.006       .  S
O1404      C1412   1.270       .  A
O1405     Cr1413   1.984       .  S
O1405      C1406   1.259       .  A
C1406      O1407   1.270       .  A
O1407     Cr1414   1.999       .  S
O1408     Cr1414   1.996       .  S
O1408      C1409   1.259       .  A
C1409      O1410   1.268       .  A
O1410     Cr1415   1.996       .  S
O1411     Cr1415   1.989       .  S
O1411      C1412   1.260       .  A
Cr1413     O1416   1.785       .  S
Cr1414     O1416   1.786       .  S
Cr1415     O1416   1.783       .  S
C1417      C1418   1.403       .  A
C1417      C1422   1.378       .  A
C1417      H1424   1.083       .  S
C1418      C1419   1.408       .  A
C1419      C1420   1.399       .  A
C1419      F1426   1.357       .  S
C1420      C1421   1.407       .  A
C1420      H1425   1.084       .  S
C1421      C1422   1.412       .  A
C1422      F1423   1.358       .  S
C1427      C1428   1.404       .  A
C1427      C1432   1.377       .  A
C1427      H1434   1.082       .  S
C1428      C1429   1.408       .  A
C1429      C1430   1.400       .  A
C1429      F1436   1.357       .  S
C1430      C1431   1.407       .  A
C1430      H1435   1.083       .  S
C1431      C1432   1.411       .  A
C1432      F1433   1.358       .  S
C1437      C1438   1.407       .  A
C1437      C1442   1.400       .  A
C1437      H1444   1.084       .  S
C1438      C1439   1.411       .  A
C1439      C1440   1.376       .  A
C1439      F1446   1.359       .  S
C1440      C1441   1.402       .  A
C1440      H1445   1.083       .  S
C1441      C1442   1.408       .  A
C1442      F1443   1.357       .  S
C1447      C1448   1.399       .  A
C1447      C1452   1.368       .  A
C1447      H1454   1.085       .  S
C1448      C1449   1.405       .  A
C1449      C1450   1.402       .  A
C1449      F1456   1.357       .  S
C1450      C1451   1.405       .  A
C1450      H1455   1.084       .  S
C1451      C1452   1.404       .  A
C1452      F1453   1.360       .  S
C1457      C1458   1.407       .  A
C1457      C1462   1.397       .  A
C1457      H1464   1.083       .  S
C1458      C1459   1.412       .  A
C1459      C1460   1.379       .  A
C1459      F1466   1.357       .  S
C1460      C1461   1.404       .  A
C1460      H1465   1.082       .  S
C1461      C1462   1.407       .  A
C1462      F1463   1.356       .  S
C1467      C1468   1.408       .  A
C1467      C1472   1.398       .  A
C1467      H1474   1.084       .  S
C1468      C1469   1.413       .  A
C1469      C1470   1.379       .  A
C1469      F1476   1.357       .  S
C1470      C1471   1.405       .  A
C1470      H1475   1.082       .  S
C1471      C1472   1.408       .  A
C1472      F1473   1.356       .  S
C1477      C3526   1.408       .  A
C1477      C1482   1.400       .  A
C1477      H3532   1.084       .  S
C1478      C3525   1.408   1_455  A
C1478      C3527   1.413   1_455  A
C1479      C3526   1.413       .  A
C1479      C1480   1.378       .  A
C1479      F2510   1.358       .  S
C1480      C1481   1.404       .  A
C1481      C1482   1.408       .  A
C1482      F1483   1.357       .  S
H1484      C3525   1.084   1_455  S
F1486      C2503   1.358   1_455  S
C1487      C1488   1.401       .  A
C1487      C1492   1.369       .  A
C1487      H1494   1.084       .  S
C1488      C1489   1.406       .  A
C1489      C1490   1.402       .  A
C1489      F1496   1.357       .  S
C1490      C3539   1.405       .  A
C1490      H3543   1.084       .  S
C1491      C3538   1.405   1_455  A
C1491      C3540   1.405   1_455  A
C1492      C3539   1.405       .  A
C1492      F3541   1.360       .  S
F1493      C3540   1.360   1_455  S
H1495      C3538   1.084   1_455  S
C1497      C1498   1.408       .  A
C1497      C2014   1.399       .  A
C1497      H1504   1.083       .  S
C1498      C3547   1.413       .  A
C1499      C3546   1.413   1_455  A
C1499      C2012   1.379       .  A
C1499      F1506   1.358       .  S
C1500      C2011   1.379   1_554  A
C1500      C3549   1.403   1_455  A
C1500      H1505   1.082       .  S
C1501      C3548   1.403       .  A
C1501      C1502   1.408       .  A
C1502      C2009   1.399   1_554  A
C1502      F1503   1.357       .  S
C1507      C3556   1.408   1_455  A
C1507      C2024   1.400   1_554  A
C1507      H1514   1.083       .  S
C1508      C3555   1.408       .  A
C1508      C1509   1.412       .  A
C1509      C2022   1.378   1_554  A
C1509      F1516   1.358       .  S
C1510      C2021   1.378       .  A
C1510      C1511   1.404       .  A
C1510      H1515   1.082       .  S
C1511      C3560   1.408       .  A
C1512      C2019   1.400       .  A
C1512      C3559   1.408   1_455  A
C1512      F1513   1.357       .  S
C1517      C1522   1.376       .  A
C1519      C1520   1.400       .  A
C1520      C1521   1.408   1_554  A
C1520      H1525   1.083       .  S
C1521      C2034   1.412       .  A
C1522      C2033   1.412       .  A
C1522      F1523   1.358       .  S
C1527      C2040   1.400       .  A
C1527      C1532   1.371       .  A
C1527      H1534   1.085       .  S
C1528      C2039   1.400       .  A
C1528      C1529   1.406       .  A
C1529      C1530   1.401       .  A
C1529      F1536   1.357       .  S
C1537      C1538   1.385       .  A
C1537      C2043   1.466       .  S
C1538      C1539   1.400       .  A
C1538      H1543   1.085       .  S
C1539      C1887   1.490       .  S
C1540      C1541   1.423       .  A
C1540      H1544   1.083       .  S
C1541      C1542   1.405       .  A
C1541      C1837   1.485       .  S
C1542      H1545   1.084       .  S
C1546      C1547   1.399       .  A
C1546      C2033   1.483       .  S
C1547      C1548   1.406       .  A
C1547      H1552   1.083       .  S
C1548      C1549   1.421       .  A
C1548      C1668   1.486       .  S
C1549      H1553   1.083       .  S
C1550      C1551   1.400       .  A
C1550      C1702   1.490       .  S
C1551      H1554   1.083       .  S
C1555      C3604   1.396       .  A
C1555      C1560   1.387       .  A
C1555      C2020   1.484       .  S
C1556      C3603   1.396   1_455  A
C1556      C1557   1.407       .  A
C1556      H1561   1.083       .  S
C1557      C3606   1.425   1_455  A
C1557      C1893   1.492       .  S
C1558      C3605   1.425       .  A
C1558      C1559   1.421       .  A
C1558      H1562   1.082       .  S
C1559      C1560   1.402       .  A
C1559      C1751   1.496       .  S
C1560      H1563   1.083       .  S
C1564      C1565   1.399       .  A
C1564      C3617   1.389       .  A
C1564      C2010   1.485       .  S
C1565      C1566   1.406       .  A
C1565      H1570   1.083       .  S
C1566      C1567   1.423       .  A
C1566      C1696   1.490       .  S
C1567      C3616   1.418       .  A
C1567      H1571   1.083       .  S
C1568      C3615   1.418   1_455  A
C1568      C1569   1.401       .  A
C1568      C1859   1.493       .  S
C1569      C3612   1.389   1_455  A
C1569      H1572   1.082       .  S
C1573      C1574   1.394       .  A
C1573      C2030   1.483       .  S
C1574      C1575   1.407       .  A
C1574      H1579   1.083       .  S
C1575      C1576   1.428       .  A
C1575      C1745   1.499       .  S
C1576      H1580   1.082       .  S
C1577      C1578   1.402       .  A
C1577      C1791   1.502       .  S
C1578      H1581   1.083       .  S
C1582      C1587   1.387   1_554  A
C1582      C2040   1.468       .  S
C1583      C1584   1.402       .  A
C1583      H1588   1.084       .  S
C1584      C1585   1.426       .  A
C1584      C1912   1.497       .  S
C1585      H1589   1.082       .  S
C1586      C1587   1.408       .  A
C1586      C1862   1.495       .  S
C1587      H1590   1.084       .  S
C1591      C3640   1.397       .  A
C1591      C1596   1.391       .  A
C1591      C2023   1.486       .  S
C1592      C3639   1.397   1_455  A
C1592      C1593   1.407       .  A
C1592      H1597   1.082       .  S
C1593      C3642   1.423   1_455  A
C1593      C1834   1.492       .  S
C1594      C3641   1.423       .  A
C1594      C1595   1.421       .  A
C1594      H1598   1.083       .  S
C1595      C1596   1.402       .  A
C1595      C1788   1.495       .  S
C1596      H1599   1.083       .  S
C1600      C3649   1.391       .  A
C1600      C1605   1.397       .  A
C1600      C2013   1.486       .  S
C1601      C3648   1.391   1_455  A
C1601      C1602   1.402       .  A
C1601      H1606   1.083       .  S
C1602      C3651   1.422   1_455  A
C1602      C1915   1.495       .  S
C1603      C3650   1.422       .  A
C1603      C1604   1.424       .  A
C1603      H1607   1.083       .  S
C1604      C1605   1.407       .  A
C1604      C1671   1.493       .  S
C1605      H1608   1.082       .  S
C1609      C1614   1.386       .  A
C1609      C2000   1.467       .  S
C1610      C1611   1.407       .  A
C1610      H1615   1.084       .  S
C1611      C1748   1.491       .  S
C1612      C1613   1.423       .  A
C1612      H1616   1.082       .  S
C1613      C1614   1.402       .  A
C1613      C1665   1.494       .  S
C1614      H1617   1.084       .  S
C1618      C1619   1.399       .  A
C1618      C1990   1.486       .  S
C1619      C1620   1.407       .  A
C1619      H1624   1.082       .  S
C1620      C1621   1.422       .  A
C1620      C1856   1.490       .  S
C1621      H1625   1.082       .  S
C1622      C1623   1.400       .  A
C1622      C1840   1.491       .  S
C1623      H1626   1.082       .  S
C1627      C1628   1.395       .  A
C1627      C1993   1.486       .  S
C1628      C1629   1.409       .  A
C1628      H1633   1.082       .  S
C1629      C1630   1.428       .  A
C1629      C1699   1.499       .  S
C1630      H1634   1.082       .  S
C1631      C1632   1.403       .  A
C1631      C1785   1.501       .  S
C1632      H1635   1.083       .  S
C1636      C1637   1.383       .  A
C1636      C2003   1.464       .  S
C1637      C1638   1.400       .  A
C1637      H1642   1.085       .  S
C1638      C1639   1.425       .  A
C1638      C1909   1.495       .  S
C1639      H1643   1.083       .  S
C1640      C1641   1.407       .  A
C1640      C1890   1.492       .  S
C1641      H1644   1.084       .  S
C1645      C1646   1.398       .  A
C1645      C1650   1.388       .  A
C1645      C1980   1.488       .  S
C1646      C1647   1.405       .  A
C1646      H1651   1.082       .  S
C1647      C1648   1.425       .  A
C1647      C1659   1.491       .  S
C1648      C1649   1.421       .  A
C1648      H1652   1.083       .  S
C1649      C1650   1.402       .  A
C1649      C1921   1.495       .  S
C1650      H1653   1.082       .  S
O1654     Cr1672   2.001       .  S
O1654      C1662   1.272       .  A
O1655     Cr1672   2.002       .  S
O1655      C1656   1.261       .  A
C1656      C1687   1.501       .  S
C1656      O1657   1.270       .  A
O1657     Cr1673   1.993       .  S
O1658     Cr1673   1.994       .  S
O1658      C1659   1.259       .  A
C1659      O1660   1.268       .  A
O1660     Cr1674   2.001       .  S
O1661     Cr1674   1.991       .  S
O1661      C1662   1.261       .  A
C1662      C1718   1.492       .  S
O1663     Cr1672   1.996       .  S
O1663      C1671   1.260       .  A
O1664     Cr1672   1.996       .  S
O1664      C1665   1.270       .  A
C1665      O1666   1.259       .  A
O1666     Cr1673   1.993       .  S
O1667     Cr1673   2.009       .  S
O1667      C1668   1.270       .  A
C1668      O1669   1.260       .  A
O1669     Cr1674   1.985       .  S
O1670     Cr1674   1.997       .  S
O1670      C1671   1.267       .  A
Cr1672     O1675   1.785       .  S
Cr1673     O1675   1.786       .  S
Cr1674     O1675   1.784       .  S
C1676      C1677   1.395       .  A
C1676      C1681   1.387       .  A
C1676      C1970   1.485       .  S
C1677      C1678   1.405       .  A
C1677      H1682   1.082       .  S
C1678      C1679   1.428       .  A
C1678      C1711   1.494       .  S
C1679      C1680   1.424       .  A
C1679      H1683   1.082       .  S
C1680      C1681   1.403       .  A
C1680      C1871   1.499       .  S
C1681      H1684   1.082       .  S
C1685      C1686   1.382       .  A
C1685      C1690   1.384       .  A
C1685      C1960   1.461       .  S
C1686      C1687   1.403       .  A
C1686      H1691   1.084       .  S
C1687      C1688   1.429       .  A
C1688      C1689   1.432       .  A
C1688      H1692   1.082       .  S
C1689      C1690   1.407       .  A
C1689      C1708   1.497       .  S
C1690      H1693   1.084       .  S
O1694     Cr1712   1.989       .  S
O1694      C1702   1.259       .  A
O1695     Cr1712   2.006       .  S
O1695      C1696   1.270       .  A
C1696      O1697   1.261       .  A
O1697     Cr1713   1.989       .  S
O1698     Cr1713   1.996       .  S
O1698      C1699   1.268       .  A
C1699      O1700   1.263       .  A
O1700     Cr1714   2.008       .  S
O1701     Cr1714   1.996       .  S
O1701      C1702   1.268       .  A
O1703     Cr1712   2.002       .  S
O1703      C1711   1.271       .  A
O1704     Cr1712   1.991       .  S
O1704      C1705   1.259       .  A
C1705      C1767   1.490       .  S
C1705      O1706   1.267       .  A
O1706     Cr1713   1.993       .  S
O1707     Cr1713   2.006       .  S
O1707      C1708   1.263       .  A
C1708      O1709   1.269       .  A
O1709     Cr1714   1.995       .  S
O1710     Cr1714   1.997       .  S
O1710      C1711   1.261       .  A
Cr1712     O1715   1.787       .  S
Cr1713     O1715   1.782       .  S
Cr1714     O1715   1.784       .  S
C1716      C1717   1.390       .  A
C1716      C1721   1.394       .  A
C1716      C1953   1.480       .  S
C1717      C1718   1.402       .  A
C1717      H1722   1.083       .  S
C1718      C1719   1.421       .  A
C1719      C1720   1.422       .  A
C1719      H1723   1.082       .  S
C1720      C1721   1.407       .  A
C1720      C1742   1.491       .  S
C1721      H1724   1.083       .  S
C1725      C1726   1.392       .  A
C1725      C1730   1.397       .  A
C1725      C1983   1.488       .  S
C1726      C1727   1.401       .  A
C1726      H1731   1.082       .  S
C1727      C1728   1.419       .  A
C1727      C1896   1.492       .  S
C1728      C1729   1.421       .  A
C1728      H1732   1.082       .  S
C1729      C1730   1.406       .  A
C1729      C1736   1.490       .  S
C1730      H1733   1.081       .  S
O1734     Cr1752   1.997       .  S
O1734      C1742   1.261       .  A
O1735     Cr1752   1.996       .  S
O1735      C1736   1.268       .  A
C1736      O1737   1.261       .  A
O1737     Cr1753   1.996       .  S
O1738     Cr1753   1.993       .  S
O1738      C1739   1.266       .  A
C1739      C1758   1.488       .  S
C1739      O1740   1.261       .  A
O1740     Cr1754   1.995       .  S
O1741     Cr1754   1.990       .  S
O1741      C1742   1.266       .  A
O1743     Cr1752   1.991       .  S
O1743      C1751   1.269       .  A
O1744     Cr1752   2.006       .  S
O1744      C1745   1.263       .  A
C1745      O1746   1.268       .  A
O1746     Cr1753   1.998       .  S
O1747     Cr1753   1.998       .  S
O1747      C1748   1.263       .  A
C1748      O1749   1.268       .  A
O1749     Cr1754   1.994       .  S
O1750     Cr1754   2.001       .  S
O1750      C1751   1.262       .  A
Cr1752     O1755   1.784       .  S
Cr1753     O1755   1.786       .  S
Cr1754     O1755   1.787       .  S
C1756      C1757   1.397       .  A
C1756      C1761   1.392       .  A
C1756      C1940   1.485       .  S
C1757      C1758   1.407       .  A
C1757      H1762   1.082       .  S
C1758      C1759   1.420       .  A
C1759      C1760   1.418       .  A
C1759      H1763   1.082       .  S
C1760      C1761   1.401       .  A
C1760      C1794   1.489       .  S
C1761      H1764   1.083       .  S
C1765      C1766   1.388       .  A
C1765      C1770   1.397       .  A
C1765      C1950   1.478       .  S
C1766      C1767   1.400       .  A
C1766      H1771   1.084       .  S
C1767      C1768   1.417       .  A
C1768      C1769   1.422       .  A
C1768      H1772   1.083       .  S
C1769      C1770   1.406       .  A
C1769      C1797   1.486       .  S
C1770      H1773   1.083       .  S
C1774      C1775   1.390       .  A
C1774      C1779   1.396       .  A
C1774      C1973   1.485       .  S
C1775      C1776   1.402       .  A
C1775      H1780   1.082       .  S
C1776      C1777   1.422       .  A
C1776      C1828   1.495       .  S
C1777      C1778   1.424       .  A
C1777      H1781   1.082       .  S
C1778      C1779   1.405       .  A
C1778      C1800   1.492       .  S
C1779      H1782   1.081       .  S
O1783     Cr1801   2.006       .  S
O1783      C1791   1.273       .  A
O1784     Cr1801   2.001       .  S
O1784      C1785   1.262       .  A
C1785      O1786   1.271       .  A
O1786     Cr1802   1.999       .  S
O1787     Cr1802   1.994       .  S
O1787      C1788   1.260       .  A
C1788      O1789   1.269       .  A
O1789     Cr1803   1.998       .  S
O1790     Cr1803   2.001       .  S
O1790      C1791   1.262       .  A
O1792     Cr1801   1.996       .  S
O1792      C1800   1.260       .  A
O1793     Cr1801   1.998       .  S
O1793      C1794   1.269       .  A
C1794      O1795   1.259       .  A
O1795     Cr1802   1.988       .  S
O1796     Cr1802   2.005       .  S
O1796      C1797   1.269       .  A
C1797      O1798   1.260       .  A
O1798     Cr1803   1.986       .  S
O1799     Cr1803   1.998       .  S
O1799      C1800   1.268       .  A
Cr1801     O1804   1.785       .  S
Cr1802     O1804   1.786       .  S
Cr1803     O1804   1.783       .  S
C1805      C1806   1.385       .  A
C1805      C1810   1.395       .  A
C1805      C1943   1.483       .  S
C1806      C1807   1.402       .  A
C1806      H1811   1.083       .  S
C1807      C1808   1.425       .  A
C1807      C1831   1.500       .  S
C1808      C1809   1.429       .  A
C1808      H1812   1.082       .  S
C1809      C1810   1.408       .  A
C1809      C1899   1.497       .  S
C1810      H1813   1.083       .  S
C1814      C1815   1.395       .  A
C1814      C1819   1.390       .  A
C1814      C1930   1.484       .  S
C1815      C1816   1.407       .  A
C1815      H1820   1.082       .  S
C1816      C1817   1.427       .  A
C1816      C1868   1.497       .  S
C1817      C1818   1.425       .  A
C1817      H1821   1.082       .  S
C1818      C1819   1.403       .  A
C1818      C1825   1.500       .  S
C1819      H1822   1.083       .  S
O1823     Cr1841   2.002       .  S
O1823      C1831   1.262       .  A
O1824     Cr1841   2.001       .  S
O1824      C1825   1.271       .  A
C1825      O1826   1.262       .  A
O1826     Cr1842   2.001       .  S
O1827     Cr1842   1.994       .  S
O1827      C1828   1.268       .  A
C1828      O1829   1.260       .  A
O1829     Cr1843   1.997       .  S
O1830     Cr1843   1.996       .  S
O1830      C1831   1.271       .  A
O1832     Cr1841   1.996       .  S
O1832      C1840   1.269       .  A
O1833     Cr1841   1.998       .  S
O1833      C1834   1.261       .  A
C1834      O1835   1.267       .  A
O1835     Cr1842   1.996       .  S
O1836     Cr1842   1.987       .  S
O1836      C1837   1.260       .  A
C1837      O1838   1.268       .  A
O1838     Cr1843   2.001       .  S
O1839     Cr1843   1.991       .  S
O1839      C1840   1.259       .  A
Cr1841     O1844   1.785       .  S
Cr1842     O1844   1.785       .  S
Cr1843     O1844   1.788       .  S
C1845      C1846   1.388       .  A
C1845      C1850   1.386       .  A
C1845      C1963   1.460       .  S
C1846      C1847   1.404       .  A
C1846      H1851   1.084       .  S
C1847      C1848   1.422       .  A
C1847      C1865   1.485       .  S
C1848      C1849   1.421       .  A
C1848      H1852   1.083       .  S
C1849      C1850   1.399       .  A
C1849      C1918   1.488       .  S
C1850      H1853   1.085       .  S
O1854     Cr1872   1.987       .  S
O1854      C1862   1.266       .  A
O1855     Cr1872   1.994       .  S
O1855      C1856   1.261       .  A
C1856      O1857   1.267       .  A
O1857     Cr1873   1.999       .  S
O1858     Cr1873   1.996       .  S
O1858      C1859   1.261       .  A
C1859      O1860   1.269       .  A
O1860     Cr1874   1.996       .  S
O1861     Cr1874   2.005       .  S
O1861      C1862   1.262       .  A
O1863     Cr1872   2.005       .  S
O1863      C1871   1.262       .  A
O1864     Cr1872   1.994       .  S
O1864      C1865   1.267       .  A
C1865      O1866   1.261       .  A
O1866     Cr1873   1.991       .  S
O1867     Cr1873   1.996       .  S
O1867      C1868   1.268       .  A
C1868      O1869   1.262       .  A
O1869     Cr1874   2.002       .  S
O1870     Cr1874   1.994       .  S
O1870      C1871   1.270       .  A
Cr1872     O1875   1.788       .  S
Cr1873     O1875   1.788       .  S
Cr1874     O1875   1.785       .  S
C1876      C1877   1.397       .  A
C1876      C1881   1.388       .  A
C1876      C1933   1.483       .  S
C1877      C1878   1.406       .  A
C1877      H1882   1.083       .  S
C1878      C1879   1.424       .  A
C1878      C1924   1.489       .  S
C1879      C1880   1.420       .  A
C1879      H1883   1.083       .  S
C1880      C1881   1.402       .  A
C1880      C1902   1.494       .  S
C1881      H1884   1.083       .  S
O1885     Cr1903   2.001       .  S
O1885      C1893   1.270       .  A
O1886     Cr1903   1.989       .  S
O1886      C1887   1.259       .  A
C1887      O1888   1.268       .  A
O1888     Cr1904   1.992       .  S
O1889     Cr1904   1.999       .  S
O1889      C1890   1.261       .  A
C1890      O1891   1.267       .  A
O1891     Cr1905   1.995       .  S
O1892     Cr1905   1.997       .  S
O1892      C1893   1.262       .  A
O1894     Cr1903   1.997       .  S
O1894      C1902   1.260       .  A
O1895     Cr1903   1.995       .  S
O1895      C1896   1.270       .  A
C1896      O1897   1.261       .  A
O1897     Cr1904   1.991       .  S
O1898     Cr1904   2.003       .  S
O1898      C1899   1.270       .  A
C1899      O1900   1.263       .  A
O1900     Cr1905   2.003       .  S
O1901     Cr1905   1.992       .  S
O1901      C1902   1.267       .  A
Cr1903     O1906   1.788       .  S
Cr1904     O1906   1.785       .  S
Cr1905     O1906   1.782       .  S
O1907     Cr1925   1.995       .  S
O1907      C1915   1.261       .  A
O1908     Cr1925   1.997       .  S
O1908      C1909   1.270       .  A
C1909      O1910   1.259       .  A
O1910     Cr1926   1.990       .  S
O1911     Cr1926   1.998       .  S
O1911      C1912   1.272       .  A
C1912      O1913   1.261       .  A
O1913     Cr1927   1.997       .  S
O1914     Cr1927   2.002       .  S
O1914      C1915   1.270       .  A
O1916     Cr1925   2.006       .  S
O1916      C1924   1.270       .  A
O1917     Cr1925   1.984       .  S
O1917      C1918   1.259       .  A
C1918      O1919   1.270       .  A
O1919     Cr1926   1.999       .  S
O1920     Cr1926   1.995       .  S
O1920      C1921   1.259       .  A
C1921      O1922   1.268       .  A
O1922     Cr1927   1.996       .  S
O1923     Cr1927   1.989       .  S
O1923      C1924   1.260       .  A
Cr1925     O1928   1.785       .  S
Cr1926     O1928   1.786       .  S
Cr1927     O1928   1.783       .  S
C1929      C1930   1.403       .  A
C1929      C1934   1.378       .  A
C1929      H1936   1.083       .  S
C1930      C1931   1.408       .  A
C1931      C1932   1.399       .  A
C1931      F1938   1.357       .  S
C1932      C1933   1.407       .  A
C1932      H1937   1.084       .  S
C1933      C1934   1.412       .  A
C1934      F1935   1.358       .  S
C1939      C1940   1.404       .  A
C1939      C1944   1.377       .  A
C1939      H1946   1.082       .  S
C1940      C1941   1.408       .  A
C1941      C1942   1.400       .  A
C1941      F1948   1.357       .  S
C1942      C1943   1.407       .  A
C1942      H1947   1.083       .  S
C1943      C1944   1.411       .  A
C1944      F1945   1.358       .  S
C1949      C1950   1.407       .  A
C1949      C1954   1.400       .  A
C1949      H1956   1.084       .  S
C1950      C1951   1.411       .  A
C1951      C1952   1.376       .  A
C1951      F1958   1.359       .  S
C1952      C1953   1.402       .  A
C1952      H1957   1.083       .  S
C1953      C1954   1.408       .  A
C1954      F1955   1.357       .  S
C1959      C1960   1.399       .  A
C1959      C1964   1.368       .  A
C1959      H1966   1.085       .  S
C1960      C1961   1.405       .  A
C1961      C1962   1.402       .  A
C1961      F1968   1.357       .  S
C1962      C1963   1.405       .  A
C1962      H1967   1.084       .  S
C1963      C1964   1.404       .  A
C1964      F1965   1.360       .  S
C1969      C1970   1.407       .  A
C1969      C1974   1.397       .  A
C1969      H1976   1.083       .  S
C1970      C1971   1.412       .  A
C1971      C1972   1.379       .  A
C1971      F1978   1.357       .  S
C1972      C1973   1.404       .  A
C1972      H1977   1.082       .  S
C1973      C1974   1.407       .  A
C1974      F1975   1.356       .  S
C1979      C1980   1.408       .  A
C1979      C1984   1.398       .  A
C1979      H1986   1.084       .  S
C1980      C1981   1.413       .  A
C1981      C1982   1.379       .  A
C1981      F1988   1.357       .  S
C1982      C1983   1.405       .  A
C1982      H1987   1.082       .  S
C1983      C1984   1.408       .  A
C1984      F1985   1.356       .  S
C1989      C4038   1.408       .  A
C1989      C1994   1.400       .  A
C1989      H4044   1.084       .  S
C1990      C4037   1.408   1_455  A
C1990      C4039   1.413   1_455  A
C1991      C4038   1.413       .  A
C1991      C1992   1.378       .  A
C1991      F3022   1.358       .  S
C1992      C1993   1.404       .  A
C1993      C1994   1.408       .  A
C1994      F1995   1.357       .  S
H1996      C4037   1.084   1_455  S
F1998      C3015   1.358   1_455  S
C1999      C2000   1.401       .  A
C1999      C2004   1.369       .  A
C1999      H2006   1.084       .  S
C2000      C2001   1.406       .  A
C2001      C2002   1.402       .  A
C2001      F2008   1.357       .  S
C2002      C4051   1.405       .  A
C2002      H4055   1.084       .  S
C2003      C4050   1.405   1_455  A
C2003      C4052   1.405   1_455  A
C2004      C4051   1.405       .  A
C2004      F4053   1.360       .  S
F2005      C4052   1.360   1_455  S
H2007      C4050   1.084   1_455  S
C2009      C2010   1.408       .  A
C2009      H2016   1.083       .  S
C2010      C4059   1.413       .  A
C2011      C4058   1.413   1_455  A
C2011      F2018   1.358       .  S
C2012      C4061   1.403   1_455  A
C2012      H2017   1.082       .  S
C2013      C4060   1.403       .  A
C2013      C2014   1.408       .  A
C2014      F2015   1.357       .  S
C2019      C4068   1.408   1_455  A
C2019      H2026   1.083       .  S
C2020      C4067   1.408       .  A
C2020      C2021   1.412       .  A
C2021      F2028   1.358       .  S
C2022      C2023   1.404       .  A
C2022      H2027   1.082       .  S
C2023      C4072   1.408       .  A
C2024      C4071   1.408   1_455  A
C2024      F2025   1.357       .  S
C2029      C2034   1.376       .  A
C2031      C2032   1.400       .  A
C2032      C2033   1.408       .  A
C2032      H2037   1.084       .  S
C2034      F2035   1.358       .  S
C2039      C2044   1.371       .  A
C2039      H2046   1.085       .  S
C2040      C2041   1.406   1_554  A
C2041      C2042   1.401       .  A
C2041      F2048   1.357       .  S
C2049      C2050   1.385   1_556  A
C2049      C2566   1.391       .  A
C2049      C2555   1.466   1_556  S
C2050      C2051   1.400       .  A
C2050      H2055   1.085       .  S
C2051      C2564   1.419   1_554  A
C2051      C2399   1.490       .  S
C2052      C2563   1.419       .  A
C2052      C2053   1.423       .  A
C2052      H2056   1.083       .  S
C2053      C2054   1.405       .  A
C2053      C2349   1.485       .  S
C2054      C2561   1.391       .  A
C2054      H2057   1.084       .  S
C2058      C2059   1.399       .  A
C2058      C2575   1.390   1_554  A
C2058      C2545   1.483   1_554  S
C2059      C2060   1.406       .  A
C2059      H2064   1.083       .  S
C2060      C2061   1.421       .  A
C2060      C2180   1.486       .  S
C2061      C2574   1.416   1_554  A
C2061      H2065   1.082       .  S
C2062      C2573   1.416       .  A
C2062      C2063   1.400       .  A
C2062      C2214   1.490       .  S
C2063      C2570   1.390       .  A
C2063      H2066   1.083       .  S
C2067      C2072   1.387       .  A
C2067      C2532   1.484       .  S
C2068      C2069   1.407       .  A
C2068      H2073   1.083       .  S
C2069      C2405   1.492       .  S
C2070      C2071   1.421       .  A
C2070      H2074   1.082       .  S
C2071      C2072   1.402       .  A
C2071      C2263   1.496       .  S
C2072      H2075   1.083       .  S
C2076      C2077   1.399       .  A
C2076      C2522   1.485       .  S
C2077      C2078   1.406       .  A
C2077      H2082   1.083       .  S
C2078      C2079   1.423       .  A
C2078      C2208   1.490       .  S
C2079      H2083   1.083       .  S
C2080      C2081   1.401       .  A
C2080      C2371   1.493       .  S
C2081      H2084   1.082       .  S
C2085      C2086   1.394   1_556  A
C2085      C2602   1.390       .  A
C2085      C2542   1.483       .  S
C2086      C2087   1.407       .  A
C2086      H2091   1.082       .  S
C2087      C2088   1.428   1_554  A
C2087      C2257   1.499       .  S
C2088      C2601   1.427       .  A
C2088      H2092   1.082       .  S
C2089      C2600   1.427       .  A
C2089      C2090   1.402       .  A
C2089      C2303   1.502       .  S
C2090      C2597   1.390       .  A
C2090      H2093   1.083       .  S
C2094      C2607   1.384       .  A
C2094      C2099   1.387       .  A
C2094      C2552   1.468       .  S
C2095      C2606   1.384       .  A
C2095      C2096   1.402       .  A
C2095      H2100   1.084       .  S
C2096      C2097   1.426       .  A
C2096      C2424   1.497       .  S
C2097      C2610   1.428   1_554  A
C2097      H2101   1.082       .  S
C2098      C2609   1.428       .  A
C2098      C2099   1.408       .  A
C2098      C2374   1.495       .  S
C2099      H2102   1.084       .  S
C2103      C2108   1.391       .  A
C2103      C2535   1.486       .  S
C2104      C2105   1.407       .  A
C2104      H2109   1.082       .  S
C2105      C2346   1.492       .  S
C2106      C2107   1.421       .  A
C2106      H2110   1.083       .  S
C2107      C2108   1.402       .  A
C2107      C2300   1.495       .  S
C2108      H2111   1.083       .  S
C2112      C2117   1.397       .  A
C2112      C2525   1.486       .  S
C2113      C2114   1.402       .  A
C2113      H2118   1.083       .  S
C2114      C2427   1.496       .  S
C2115      C2116   1.424       .  A
C2115      H2119   1.083       .  S
C2116      C2117   1.407       .  A
C2116      C2183   1.493       .  S
C2117      H2120   1.082       .  S
C2121      C3146   1.389   1_545  A
C2121      C2126   1.386       .  A
C2121      C2512   1.467       .  S
C2122      C3145   1.389       .  A
C2122      C2123   1.407       .  A
C2122      H2127   1.084       .  S
C2123      C3148   1.426       .  A
C2123      C2260   1.491       .  S
C2124      C3147   1.426   1_545  A
C2124      C2125   1.423       .  A
C2124      H2128   1.082       .  S
C2125      C2126   1.402       .  A
C2125      C2177   1.494       .  S
C2126      H2129   1.084       .  S
C2130      C2131   1.399       .  A
C2130      C3159   1.389   1_545  A
C2130      C2502   1.486       .  S
C2131      C2132   1.407       .  A
C2131      H2136   1.082       .  S
C2132      C2133   1.422       .  A
C2132      C2368   1.490       .  S
C2133      C3158   1.419   1_545  A
C2133      H2137   1.082       .  S
C2134      C3157   1.419       .  A
C2134      C2135   1.400       .  A
C2134      C2352   1.491       .  S
C2135      C3154   1.389       .  A
C2135      H2138   1.082       .  S
C2139      C2140   1.395       .  A
C2139      C3168   1.389   1_545  A
C2139      C2505   1.486       .  S
C2140      C2141   1.409       .  A
C2140      H2145   1.082       .  S
C2141      C2142   1.428       .  A
C2141      C2211   1.499       .  S
C2142      C3167   1.426   1_545  A
C2142      H2146   1.082       .  S
C2143      C3166   1.426       .  A
C2143      C2144   1.403       .  A
C2143      C2297   1.501       .  S
C2144      C3163   1.389       .  A
C2144      H2147   1.083       .  S
C2148      C2149   1.383       .  A
C2148      C3177   1.388   1_545  A
C2148      C2515   1.464       .  S
C2149      C2150   1.400       .  A
C2149      H2154   1.085       .  S
C2150      C2151   1.425       .  A
C2150      C2421   1.495       .  S
C2151      C3176   1.428   1_545  A
C2151      H2155   1.083       .  S
C2152      C3175   1.428       .  A
C2152      C2153   1.407       .  A
C2152      C2402   1.492       .  S
C2153      C3172   1.388       .  A
C2153      H2156   1.084       .  S
C2157      C2158   1.398       .  A
C2157      C2162   1.388       .  A
C2157      C2492   1.488       .  S
C2158      C2159   1.405       .  A
C2158      H2163   1.082       .  S
C2159      C2160   1.425       .  A
C2159      C2171   1.491       .  S
C2160      C2161   1.421       .  A
C2160      H2164   1.083       .  S
C2161      C2162   1.402       .  A
C2161      C2433   1.495       .  S
C2162      H2165   1.082       .  S
O2166     Cr2184   2.001       .  S
O2166      C2174   1.272       .  A
O2167     Cr2184   2.002       .  S
O2167      C2168   1.261       .  A
C2168      C2199   1.501       .  S
C2168      O2169   1.270       .  A
O2169     Cr2185   1.993       .  S
O2170     Cr2185   1.994       .  S
O2170      C2171   1.259       .  A
C2171      O2172   1.268       .  A
O2172     Cr2186   2.001       .  S
O2173     Cr2186   1.991       .  S
O2173      C2174   1.261       .  A
C2174      C2230   1.492       .  S
O2175     Cr2184   1.996       .  S
O2175      C2183   1.260       .  A
O2176     Cr2184   1.996       .  S
O2176      C2177   1.270       .  A
C2177      O2178   1.260       .  A
O2178     Cr2185   1.993       .  S
O2179     Cr2185   2.009       .  S
O2179      C2180   1.270       .  A
C2180      O2181   1.260       .  A
O2181     Cr2186   1.985       .  S
O2182     Cr2186   1.997       .  S
O2182      C2183   1.267       .  A
Cr2184     O2187   1.785       .  S
Cr2185     O2187   1.786       .  S
Cr2186     O2187   1.784       .  S
C2188      C2189   1.395       .  A
C2188      C2193   1.387       .  A
C2188      C2482   1.485       .  S
C2189      C2190   1.405       .  A
C2189      H2194   1.082       .  S
C2190      C2191   1.428       .  A
C2190      C2223   1.494       .  S
C2191      C2192   1.424       .  A
C2191      H2195   1.082       .  S
C2192      C2193   1.403       .  A
C2192      C2383   1.499       .  S
C2193      H2196   1.082       .  S
C2197      C2198   1.382       .  A
C2197      C2202   1.384       .  A
C2197      C2472   1.461       .  S
C2198      C2199   1.403       .  A
C2198      H2203   1.084       .  S
C2199      C2200   1.429       .  A
C2200      C2201   1.432       .  A
C2200      H2204   1.082       .  S
C2201      C2202   1.407       .  A
C2201      C2220   1.497       .  S
C2202      H2205   1.084       .  S
O2206     Cr2224   1.989       .  S
O2206      C2214   1.259       .  A
O2207     Cr2224   2.006       .  S
O2207      C2208   1.270       .  A
C2208      O2209   1.261       .  A
O2209     Cr2225   1.989       .  S
O2210     Cr2225   1.996       .  S
O2210      C2211   1.268       .  A
C2211      O2212   1.263       .  A
O2212     Cr2226   2.008       .  S
O2213     Cr2226   1.996       .  S
O2213      C2214   1.268       .  A
O2215     Cr2224   2.002       .  S
O2215      C2223   1.271       .  A
O2216     Cr2224   1.991       .  S
O2216      C2217   1.259       .  A
C2217      C2279   1.490       .  S
C2217      O2218   1.267       .  A
O2218     Cr2225   1.993       .  S
O2219     Cr2225   2.006       .  S
O2219      C2220   1.263       .  A
C2220      O2221   1.269       .  A
O2221     Cr2226   1.995       .  S
O2222     Cr2226   1.997       .  S
O2222      C2223   1.261       .  A
Cr2224     O2227   1.787       .  S
Cr2225     O2227   1.782       .  S
Cr2226     O2227   1.784       .  S
C2228      C2229   1.390       .  A
C2228      C2233   1.394       .  A
C2228      C2465   1.480       .  S
C2229      C2230   1.402       .  A
C2229      H2234   1.083       .  S
C2230      C2231   1.421       .  A
C2231      C2232   1.422       .  A
C2231      H2235   1.082       .  S
C2232      C2233   1.407       .  A
C2232      C2254   1.491       .  S
C2233      H2236   1.083       .  S
C2237      C2238   1.392       .  A
C2237      C2242   1.398       .  A
C2237      C2495   1.488       .  S
C2238      C2239   1.401       .  A
C2238      H2243   1.082       .  S
C2239      C2240   1.419       .  A
C2239      C2408   1.492       .  S
C2240      C2241   1.421       .  A
C2240      H2244   1.082       .  S
C2241      C2242   1.406       .  A
C2241      C2248   1.490       .  S
C2242      H2245   1.081       .  S
O2246     Cr2264   1.998       .  S
O2246      C2254   1.261       .  A
O2247     Cr2264   1.996       .  S
O2247      C2248   1.268       .  A
C2248      O2249   1.261       .  A
O2249     Cr2265   1.996       .  S
O2250     Cr2265   1.993       .  S
O2250      C2251   1.266       .  A
C2251      C2270   1.488       .  S
C2251      O2252   1.260       .  A
O2252     Cr2266   1.995       .  S
O2253     Cr2266   1.990       .  S
O2253      C2254   1.266       .  A
O2255     Cr2264   1.991       .  S
O2255      C2263   1.269       .  A
O2256     Cr2264   2.006       .  S
O2256      C2257   1.263       .  A
C2257      O2258   1.268       .  A
O2258     Cr2265   1.998       .  S
O2259     Cr2265   1.998       .  S
O2259      C2260   1.263       .  A
C2260      O2261   1.268       .  A
O2261     Cr2266   1.994       .  S
O2262     Cr2266   2.001       .  S
O2262      C2263   1.262       .  A
Cr2264     O2267   1.784       .  S
Cr2265     O2267   1.786       .  S
Cr2266     O2267   1.787       .  S
C2268      C2269   1.397       .  A
C2268      C2273   1.392       .  A
C2268      C2452   1.485       .  S
C2269      C2270   1.407       .  A
C2269      H2274   1.082       .  S
C2270      C2271   1.420       .  A
C2271      C2272   1.418       .  A
C2271      H2275   1.082       .  S
C2272      C2273   1.401       .  A
C2272      C2306   1.489       .  S
C2273      H2276   1.083       .  S
C2277      C2278   1.388       .  A
C2277      C2282   1.397       .  A
C2277      C2462   1.478       .  S
C2278      C2279   1.400       .  A
C2278      H2283   1.084       .  S
C2279      C2280   1.417       .  A
C2280      C2281   1.422       .  A
C2280      H2284   1.083       .  S
C2281      C2282   1.406       .  A
C2281      C2309   1.486       .  S
C2282      H2285   1.083       .  S
C2286      C2287   1.390       .  A
C2286      C2291   1.396       .  A
C2286      C2485   1.485       .  S
C2287      C2288   1.402       .  A
C2287      H2292   1.082       .  S
C2288      C2289   1.422       .  A
C2288      C2340   1.495       .  S
C2289      C2290   1.424       .  A
C2289      H2293   1.082       .  S
C2290      C2291   1.405       .  A
C2290      C2312   1.492       .  S
C2291      H2294   1.081       .  S
O2295     Cr2313   2.006       .  S
O2295      C2303   1.273       .  A
O2296     Cr2313   2.001       .  S
O2296      C2297   1.262       .  A
C2297      O2298   1.271       .  A
O2298     Cr2314   1.999       .  S
O2299     Cr2314   1.994       .  S
O2299      C2300   1.260       .  A
C2300      O2301   1.269       .  A
O2301     Cr2315   1.998       .  S
O2302     Cr2315   2.000       .  S
O2302      C2303   1.262       .  A
O2304     Cr2313   1.996       .  S
O2304      C2312   1.260       .  A
O2305     Cr2313   1.998       .  S
O2305      C2306   1.269       .  A
C2306      O2307   1.259       .  A
O2307     Cr2314   1.988       .  S
O2308     Cr2314   2.005       .  S
O2308      C2309   1.269       .  A
C2309      O2310   1.260       .  A
O2310     Cr2315   1.986       .  S
O2311     Cr2315   1.998       .  S
O2311      C2312   1.268       .  A
Cr2313     O2316   1.785       .  S
Cr2314     O2316   1.786       .  S
Cr2315     O2316   1.783       .  S
C2317      C2318   1.385       .  A
C2317      C2322   1.395       .  A
C2317      C2455   1.483       .  S
C2318      C2319   1.402       .  A
C2318      H2323   1.083       .  S
C2319      C2320   1.425       .  A
C2319      C2343   1.500       .  S
C2320      C2321   1.429       .  A
C2320      H2324   1.082       .  S
C2321      C2322   1.408       .  A
C2321      C2411   1.497       .  S
C2322      H2325   1.083       .  S
C2326      C2327   1.395       .  A
C2326      C2331   1.390       .  A
C2326      C2442   1.484       .  S
C2327      C2328   1.407       .  A
C2327      H2332   1.082       .  S
C2328      C2329   1.427       .  A
C2328      C2380   1.497       .  S
C2329      C2330   1.425       .  A
C2329      H2333   1.082       .  S
C2330      C2331   1.403       .  A
C2330      C2337   1.500       .  S
C2331      H2334   1.083       .  S
O2335     Cr2353   2.002       .  S
O2335      C2343   1.262       .  A
O2336     Cr2353   2.001       .  S
O2336      C2337   1.271       .  A
C2337      O2338   1.262       .  A
O2338     Cr2354   2.001       .  S
O2339     Cr2354   1.994       .  S
O2339      C2340   1.268       .  A
C2340      O2341   1.260       .  A
O2341     Cr2355   1.997       .  S
O2342     Cr2355   1.996       .  S
O2342      C2343   1.271       .  A
O2344     Cr2353   1.996       .  S
O2344      C2352   1.269       .  A
O2345     Cr2353   1.998       .  S
O2345      C2346   1.261       .  A
C2346      O2347   1.267       .  A
O2347     Cr2354   1.996       .  S
O2348     Cr2354   1.987       .  S
O2348      C2349   1.260       .  A
C2349      O2350   1.268       .  A
O2350     Cr2355   2.001       .  S
O2351     Cr2355   1.991       .  S
O2351      C2352   1.259       .  A
Cr2353     O2356   1.785       .  S
Cr2354     O2356   1.785       .  S
Cr2355     O2356   1.788       .  S
C2357      C2358   1.388       .  A
C2357      C2362   1.386       .  A
C2357      C2475   1.460       .  S
C2358      C2359   1.404       .  A
C2358      H2363   1.084       .  S
C2359      C2360   1.422       .  A
C2359      C2377   1.485       .  S
C2360      C2361   1.421       .  A
C2360      H2364   1.083       .  S
C2361      C2362   1.399       .  A
C2361      C2430   1.488       .  S
C2362      H2365   1.085       .  S
O2366     Cr2384   1.987       .  S
O2366      C2374   1.266       .  A
O2367     Cr2384   1.994       .  S
O2367      C2368   1.261       .  A
C2368      O2369   1.267       .  A
O2369     Cr2385   1.999       .  S
O2370     Cr2385   1.996       .  S
O2370      C2371   1.261       .  A
C2371      O2372   1.269       .  A
O2372     Cr2386   1.996       .  S
O2373     Cr2386   2.005       .  S
O2373      C2374   1.262       .  A
O2375     Cr2384   2.005       .  S
O2375      C2383   1.262       .  A
O2376     Cr2384   1.994       .  S
O2376      C2377   1.267       .  A
C2377      O2378   1.261       .  A
O2378     Cr2385   1.991       .  S
O2379     Cr2385   1.996       .  S
O2379      C2380   1.268       .  A
C2380      O2381   1.262       .  A
O2381     Cr2386   2.002       .  S
O2382     Cr2386   1.994       .  S
O2382      C2383   1.270       .  A
Cr2384     O2387   1.788       .  S
Cr2385     O2387   1.788       .  S
Cr2386     O2387   1.785       .  S
C2388      C2389   1.397       .  A
C2388      C2393   1.388       .  A
C2388      C2445   1.483       .  S
C2389      C2390   1.406       .  A
C2389      H2394   1.083       .  S
C2390      C2391   1.424       .  A
C2390      C2436   1.489       .  S
C2391      C2392   1.420       .  A
C2391      H2395   1.083       .  S
C2392      C2393   1.402       .  A
C2392      C2414   1.494       .  S
C2393      H2396   1.083       .  S
O2397     Cr2415   2.001       .  S
O2397      C2405   1.270       .  A
O2398     Cr2415   1.989       .  S
O2398      C2399   1.259       .  A
C2399      O2400   1.268       .  A
O2400     Cr2416   1.992       .  S
O2401     Cr2416   1.999       .  S
O2401      C2402   1.261       .  A
C2402      O2403   1.267       .  A
O2403     Cr2417   1.995       .  S
O2404     Cr2417   1.997       .  S
O2404      C2405   1.262       .  A
O2406     Cr2415   1.997       .  S
O2406      C2414   1.260       .  A
O2407     Cr2415   1.995       .  S
O2407      C2408   1.270       .  A
C2408      O2409   1.261       .  A
O2409     Cr2416   1.991       .  S
O2410     Cr2416   2.003       .  S
O2410      C2411   1.270       .  A
C2411      O2412   1.263       .  A
O2412     Cr2417   2.003       .  S
O2413     Cr2417   1.992       .  S
O2413      C2414   1.267       .  A
Cr2415     O2418   1.788       .  S
Cr2416     O2418   1.785       .  S
Cr2417     O2418   1.782       .  S
O2419     Cr2437   1.995       .  S
O2419      C2427   1.261       .  A
O2420     Cr2437   1.997       .  S
O2420      C2421   1.270       .  A
C2421      O2422   1.259       .  A
O2422     Cr2438   1.990       .  S
O2423     Cr2438   1.998       .  S
O2423      C2424   1.272       .  A
C2424      O2425   1.261       .  A
O2425     Cr2439   1.997       .  S
O2426     Cr2439   2.002       .  S
O2426      C2427   1.270       .  A
O2428     Cr2437   2.006       .  S
O2428      C2436   1.270       .  A
O2429     Cr2437   1.984       .  S
O2429      C2430   1.259       .  A
C2430      O2431   1.270       .  A
O2431     Cr2438   1.999       .  S
O2432     Cr2438   1.996       .  S
O2432      C2433   1.259       .  A
C2433      O2434   1.268       .  A
O2434     Cr2439   1.996       .  S
O2435     Cr2439   1.989       .  S
O2435      C2436   1.260       .  A
Cr2437     O2440   1.785       .  S
Cr2438     O2440   1.786       .  S
Cr2439     O2440   1.783       .  S
C2441      C2442   1.403       .  A
C2441      C2446   1.378       .  A
C2441      H2448   1.083       .  S
C2442      C2443   1.408       .  A
C2443      C2444   1.399       .  A
C2443      F2450   1.357       .  S
C2444      C2445   1.407       .  A
C2444      H2449   1.084       .  S
C2445      C2446   1.412       .  A
C2446      F2447   1.358       .  S
C2451      C2452   1.404       .  A
C2451      C2456   1.377       .  A
C2451      H2458   1.082       .  S
C2452      C2453   1.408       .  A
C2453      C2454   1.400       .  A
C2453      F2460   1.357       .  S
C2454      C2455   1.407       .  A
C2454      H2459   1.083       .  S
C2455      C2456   1.411       .  A
C2456      F2457   1.358       .  S
C2461      C2462   1.407       .  A
C2461      C2466   1.400       .  A
C2461      H2468   1.084       .  S
C2462      C2463   1.411       .  A
C2463      C2464   1.376       .  A
C2463      F2470   1.359       .  S
C2464      C2465   1.402       .  A
C2464      H2469   1.083       .  S
C2465      C2466   1.408       .  A
C2466      F2467   1.357       .  S
C2471      C2472   1.399       .  A
C2471      C2476   1.368       .  A
C2471      H2478   1.085       .  S
C2472      C2473   1.405       .  A
C2473      C2474   1.402       .  A
C2473      F2480   1.357       .  S
C2474      C2475   1.405       .  A
C2474      H2479   1.084       .  S
C2475      C2476   1.404       .  A
C2476      F2477   1.360       .  S
C2481      C2482   1.407       .  A
C2481      C2486   1.397       .  A
C2481      H2488   1.083       .  S
C2482      C2483   1.412       .  A
C2483      C2484   1.379       .  A
C2483      F2490   1.357       .  S
C2484      C2485   1.404       .  A
C2484      H2489   1.082       .  S
C2485      C2486   1.407       .  A
C2486      F2487   1.356       .  S
C2491      C2492   1.408       .  A
C2491      C2496   1.398       .  A
C2491      H2498   1.084       .  S
C2492      C2493   1.413       .  A
C2493      C2494   1.379       .  A
C2493      F2500   1.357       .  S
C2494      C2495   1.405       .  A
C2494      H2499   1.082       .  S
C2495      C2496   1.408       .  A
C2496      F2497   1.356       .  S
C2501      C2506   1.400       .  A
C2503      C2504   1.378       .  A
C2504      C2505   1.404   1_565  A
C2504      H3533   1.082       .  S
C2505      C2506   1.408       .  A
C2506      F2507   1.357       .  S
H2509      C3528   1.082       .  S
C2511      C2512   1.401       .  A
C2511      C2516   1.369       .  A
C2511      H2518   1.084       .  S
C2512      C2513   1.406       .  A
C2513      C2514   1.402       .  A
C2513      F2520   1.357   1_545  S
C2521      C2522   1.408       .  A
C2521      C3038   1.399       .  A
C2521      H2528   1.083       .  S
C2523      C3036   1.379       .  A
C2523      F2530   1.358       .  S
C2524      C3035   1.379   1_554  A
C2524      H2529   1.082       .  S
C2525      C2526   1.408       .  A
C2526      C3033   1.399   1_554  A
C2526      F2527   1.357       .  S
C2531      C3048   1.400   1_554  A
C2531      H2538   1.083       .  S
C2532      C2533   1.412       .  A
C2533      C3046   1.378   1_554  A
C2533      F2540   1.358       .  S
C2534      C3045   1.378       .  A
C2534      C2535   1.404       .  A
C2534      H2539   1.082       .  S
C2536      C3043   1.400       .  A
C2536      F2537   1.357       .  S
C2541      C4078   1.402   1_545  A
C2541      C2546   1.376       .  A
C2541      H3572   1.084   1_545  S
C2542      C4077   1.402       .  A
C2542      C3567   1.408   1_556  A
C2543      C3566   1.408   1_544  A
C2543      C2544   1.400       .  A
C2543      F3574   1.357   1_545  S
C2544      C2545   1.408   1_554  A
C2544      H2549   1.083       .  S
C2545      C3058   1.412       .  A
C2546      C3057   1.412       .  A
C2546      F2547   1.358       .  S
H2548      C3565   1.084       .  S
F2550      C3567   1.357       .  S
C2551      C3064   1.400       .  A
C2551      C2556   1.371       .  A
C2551      H2558   1.085       .  S
C2552      C3063   1.400       .  A
C2552      C2553   1.406       .  A
C2553      C2554   1.401       .  A
C2553      F2560   1.357       .  S
C2554      C4091   1.405   1_545  A
C2554      H3583   1.084   1_545  S
C2555      C4090   1.405   1_554  A
C2555      C3580   1.407       .  A
C2556      C3579   1.407   1_545  A
C2556      F3581   1.360   1_545  S
F2557      C3580   1.360       .  S
H2559      C3578   1.084       .  S
C2561      C2562   1.385       .  A
C2561      C3067   1.466       .  S
C2562      C2563   1.400       .  A
C2562      H2567   1.085       .  S
C2563      C2911   1.490       .  S
C2564      C2565   1.423       .  A
C2564      H2568   1.083       .  S
C2565      C2566   1.405       .  A
C2565      C2861   1.485       .  S
C2566      H2569   1.084       .  S
C2570      C2571   1.399       .  A
C2570      C3057   1.483       .  S
C2571      C2572   1.406       .  A
C2571      H2576   1.083       .  S
C2572      C2573   1.421       .  A
C2572      C2692   1.486       .  S
C2573      H2577   1.083       .  S
C2574      C2575   1.400       .  A
C2574      C2726   1.490       .  S
C2575      H2578   1.083       .  S
C2579      C2584   1.387       .  A
C2579      C3044   1.484       .  S
C2580      C2581   1.407       .  A
C2580      H2585   1.083       .  S
C2581      C2917   1.492       .  S
C2582      C2583   1.421       .  A
C2582      H2586   1.082       .  S
C2583      C2584   1.402       .  A
C2583      C2775   1.496       .  S
C2584      H2587   1.083       .  S
C2588      C2589   1.399       .  A
C2588      C3034   1.485       .  S
C2589      C2590   1.406       .  A
C2589      H2594   1.083       .  S
C2590      C2591   1.423       .  A
C2590      C2720   1.490       .  S
C2591      H2595   1.083       .  S
C2592      C2593   1.401       .  A
C2592      C2883   1.493       .  S
C2593      H2596   1.082       .  S
C2597      C2598   1.394       .  A
C2597      C3054   1.483       .  S
C2598      C2599   1.407       .  A
C2598      H2603   1.083       .  S
C2599      C2600   1.428       .  A
C2599      C2769   1.499       .  S
C2600      H2604   1.082       .  S
C2601      C2602   1.402       .  A
C2601      C2815   1.502       .  S
C2602      H2605   1.083       .  S
C2606      C2611   1.387   1_554  A
C2606      C3064   1.468       .  S
C2607      C2608   1.402       .  A
C2607      H2612   1.084       .  S
C2608      C2609   1.426       .  A
C2608      C2936   1.497       .  S
C2609      H2613   1.082       .  S
C2610      C2611   1.408       .  A
C2610      C2886   1.495       .  S
C2611      H2614   1.084       .  S
C2615      C2620   1.391       .  A
C2615      C3047   1.486       .  S
C2616      C2617   1.407       .  A
C2616      H2621   1.082       .  S
C2617      C2858   1.492       .  S
C2618      C2619   1.421       .  A
C2618      H2622   1.083       .  S
C2619      C2620   1.402       .  A
C2619      C2812   1.495       .  S
C2620      H2623   1.083       .  S
C2624      C2629   1.397       .  A
C2624      C3037   1.486       .  S
C2625      C2626   1.402       .  A
C2625      H2630   1.083       .  S
C2626      C2939   1.495       .  S
C2627      C2628   1.424       .  A
C2627      H2631   1.083       .  S
C2628      C2629   1.407       .  A
C2628      C2695   1.493       .  S
C2629      H2632   1.082       .  S
C2633      C3658   1.389   1_545  A
C2633      C2638   1.386       .  A
C2633      C3024   1.467       .  S
C2634      C3657   1.389       .  A
C2634      C2635   1.407       .  A
C2634      H2639   1.084       .  S
C2635      C3660   1.426       .  A
C2635      C2772   1.491       .  S
C2636      C3659   1.426   1_545  A
C2636      C2637   1.423       .  A
C2636      H2640   1.082       .  S
C2637      C2638   1.402       .  A
C2637      C2689   1.494       .  S
C2638      H2641   1.084       .  S
C2642      C2643   1.399       .  A
C2642      C3671   1.389   1_545  A
C2642      C3014   1.486       .  S
C2643      C2644   1.407       .  A
C2643      H2648   1.082       .  S
C2644      C2645   1.422       .  A
C2644      C2880   1.490       .  S
C2645      C3670   1.419   1_545  A
C2645      H2649   1.082       .  S
C2646      C3669   1.419       .  A
C2646      C2647   1.400       .  A
C2646      C2864   1.491       .  S
C2647      C3666   1.389       .  A
C2647      H2650   1.082       .  S
C2651      C2652   1.395       .  A
C2651      C3680   1.389   1_545  A
C2651      C3017   1.486       .  S
C2652      C2653   1.409       .  A
C2652      H2657   1.082       .  S
C2653      C2654   1.428       .  A
C2653      C2723   1.499       .  S
C2654      C3679   1.426   1_545  A
C2654      H2658   1.082       .  S
C2655      C3678   1.426       .  A
C2655      C2656   1.403       .  A
C2655      C2809   1.501       .  S
C2656      C3675   1.389       .  A
C2656      H2659   1.083       .  S
C2660      C2661   1.383       .  A
C2660      C3689   1.388   1_545  A
C2660      C3027   1.464       .  S
C2661      C2662   1.400       .  A
C2661      H2666   1.085       .  S
C2662      C2663   1.425       .  A
C2662      C2933   1.495       .  S
C2663      C3688   1.428   1_545  A
C2663      H2667   1.083       .  S
C2664      C3687   1.428       .  A
C2664      C2665   1.407       .  A
C2664      C2914   1.492       .  S
C2665      C3684   1.388       .  A
C2665      H2668   1.084       .  S
C2669      C2670   1.398       .  A
C2669      C2674   1.388       .  A
C2669      C3004   1.488       .  S
C2670      C2671   1.405       .  A
C2670      H2675   1.082       .  S
C2671      C2672   1.425       .  A
C2671      C2683   1.491       .  S
C2672      C2673   1.421       .  A
C2672      H2676   1.083       .  S
C2673      C2674   1.402       .  A
C2673      C2945   1.495       .  S
C2674      H2677   1.082       .  S
O2678     Cr2696   2.001       .  S
O2678      C2686   1.272       .  A
O2679     Cr2696   2.002       .  S
O2679      C2680   1.261       .  A
C2680      C2711   1.501       .  S
C2680      O2681   1.270       .  A
O2681     Cr2697   1.993       .  S
O2682     Cr2697   1.994       .  S
O2682      C2683   1.259       .  A
C2683      O2684   1.268       .  A
O2684     Cr2698   2.001       .  S
O2685     Cr2698   1.991       .  S
O2685      C2686   1.261       .  A
C2686      C2742   1.492       .  S
O2687     Cr2696   1.996       .  S
O2687      C2695   1.260       .  A
O2688     Cr2696   1.996       .  S
O2688      C2689   1.270       .  A
C2689      O2690   1.259       .  A
O2690     Cr2697   1.993       .  S
O2691     Cr2697   2.009       .  S
O2691      C2692   1.270       .  A
C2692      O2693   1.260       .  A
O2693     Cr2698   1.985       .  S
O2694     Cr2698   1.997       .  S
O2694      C2695   1.267       .  A
Cr2696     O2699   1.785       .  S
Cr2697     O2699   1.786       .  S
Cr2698     O2699   1.784       .  S
C2700      C2701   1.395       .  A
C2700      C2705   1.387       .  A
C2700      C2994   1.485       .  S
C2701      C2702   1.405       .  A
C2701      H2706   1.082       .  S
C2702      C2703   1.428       .  A
C2702      C2735   1.494       .  S
C2703      C2704   1.424       .  A
C2703      H2707   1.082       .  S
C2704      C2705   1.403       .  A
C2704      C2895   1.499       .  S
C2705      H2708   1.082       .  S
C2709      C2710   1.382       .  A
C2709      C2714   1.384       .  A
C2709      C2984   1.461       .  S
C2710      C2711   1.403       .  A
C2710      H2715   1.084       .  S
C2711      C2712   1.429       .  A
C2712      C2713   1.432       .  A
C2712      H2716   1.082       .  S
C2713      C2714   1.407       .  A
C2713      C2732   1.497       .  S
C2714      H2717   1.084       .  S
O2718     Cr2736   1.989       .  S
O2718      C2726   1.259       .  A
O2719     Cr2736   2.006       .  S
O2719      C2720   1.270       .  A
C2720      O2721   1.261       .  A
O2721     Cr2737   1.989       .  S
O2722     Cr2737   1.996       .  S
O2722      C2723   1.268       .  A
C2723      O2724   1.263       .  A
O2724     Cr2738   2.008       .  S
O2725     Cr2738   1.996       .  S
O2725      C2726   1.268       .  A
O2727     Cr2736   2.002       .  S
O2727      C2735   1.271       .  A
O2728     Cr2736   1.991       .  S
O2728      C2729   1.259       .  A
C2729      C2791   1.490       .  S
C2729      O2730   1.267       .  A
O2730     Cr2737   1.993       .  S
O2731     Cr2737   2.006       .  S
O2731      C2732   1.263       .  A
C2732      O2733   1.269       .  A
O2733     Cr2738   1.995       .  S
O2734     Cr2738   1.997       .  S
O2734      C2735   1.261       .  A
Cr2736     O2739   1.787       .  S
Cr2737     O2739   1.782       .  S
Cr2738     O2739   1.784       .  S
C2740      C2741   1.390       .  A
C2740      C2745   1.394       .  A
C2740      C2977   1.480       .  S
C2741      C2742   1.402       .  A
C2741      H2746   1.083       .  S
C2742      C2743   1.421       .  A
C2743      C2744   1.422       .  A
C2743      H2747   1.082       .  S
C2744      C2745   1.407       .  A
C2744      C2766   1.491       .  S
C2745      H2748   1.083       .  S
C2749      C2750   1.392       .  A
C2749      C2754   1.397       .  A
C2749      C3007   1.488       .  S
C2750      C2751   1.401       .  A
C2750      H2755   1.082       .  S
C2751      C2752   1.419       .  A
C2751      C2920   1.492       .  S
C2752      C2753   1.421       .  A
C2752      H2756   1.082       .  S
C2753      C2754   1.406       .  A
C2753      C2760   1.490       .  S
C2754      H2757   1.081       .  S
O2758     Cr2776   1.997       .  S
O2758      C2766   1.261       .  A
O2759     Cr2776   1.996       .  S
O2759      C2760   1.268       .  A
C2760      O2761   1.261       .  A
O2761     Cr2777   1.996       .  S
O2762     Cr2777   1.993       .  S
O2762      C2763   1.266       .  A
C2763      C2782   1.488       .  S
C2763      O2764   1.261       .  A
O2764     Cr2778   1.995       .  S
O2765     Cr2778   1.990       .  S
O2765      C2766   1.266       .  A
O2767     Cr2776   1.991       .  S
O2767      C2775   1.269       .  A
O2768     Cr2776   2.006       .  S
O2768      C2769   1.263       .  A
C2769      O2770   1.268       .  A
O2770     Cr2777   1.998       .  S
O2771     Cr2777   1.998       .  S
O2771      C2772   1.263       .  A
C2772      O2773   1.268       .  A
O2773     Cr2778   1.994       .  S
O2774     Cr2778   2.001       .  S
O2774      C2775   1.262       .  A
Cr2776     O2779   1.784       .  S
Cr2777     O2779   1.786       .  S
Cr2778     O2779   1.787       .  S
C2780      C2781   1.397       .  A
C2780      C2785   1.392       .  A
C2780      C2964   1.485       .  S
C2781      C2782   1.407       .  A
C2781      H2786   1.082       .  S
C2782      C2783   1.420       .  A
C2783      C2784   1.418       .  A
C2783      H2787   1.082       .  S
C2784      C2785   1.401       .  A
C2784      C2818   1.489       .  S
C2785      H2788   1.083       .  S
C2789      C2790   1.388       .  A
C2789      C2794   1.397       .  A
C2789      C2974   1.478       .  S
C2790      C2791   1.400       .  A
C2790      H2795   1.084       .  S
C2791      C2792   1.417       .  A
C2792      C2793   1.422       .  A
C2792      H2796   1.083       .  S
C2793      C2794   1.406       .  A
C2793      C2821   1.486       .  S
C2794      H2797   1.083       .  S
C2798      C2799   1.390       .  A
C2798      C2803   1.396       .  A
C2798      C2997   1.485       .  S
C2799      C2800   1.402       .  A
C2799      H2804   1.082       .  S
C2800      C2801   1.422       .  A
C2800      C2852   1.495       .  S
C2801      C2802   1.424       .  A
C2801      H2805   1.082       .  S
C2802      C2803   1.405       .  A
C2802      C2824   1.492       .  S
C2803      H2806   1.081       .  S
O2807     Cr2825   2.006       .  S
O2807      C2815   1.273       .  A
O2808     Cr2825   2.001       .  S
O2808      C2809   1.262       .  A
C2809      O2810   1.271       .  A
O2810     Cr2826   1.999       .  S
O2811     Cr2826   1.994       .  S
O2811      C2812   1.260       .  A
C2812      O2813   1.269       .  A
O2813     Cr2827   1.998       .  S
O2814     Cr2827   2.001       .  S
O2814      C2815   1.262       .  A
O2816     Cr2825   1.996       .  S
O2816      C2824   1.260       .  A
O2817     Cr2825   1.998       .  S
O2817      C2818   1.269       .  A
C2818      O2819   1.259       .  A
O2819     Cr2826   1.988       .  S
O2820     Cr2826   2.005       .  S
O2820      C2821   1.269       .  A
C2821      O2822   1.260       .  A
O2822     Cr2827   1.986       .  S
O2823     Cr2827   1.998       .  S
O2823      C2824   1.268       .  A
Cr2825     O2828   1.785       .  S
Cr2826     O2828   1.786       .  S
Cr2827     O2828   1.783       .  S
C2829      C2830   1.385       .  A
C2829      C2834   1.395       .  A
C2829      C2967   1.483       .  S
C2830      C2831   1.402       .  A
C2830      H2835   1.083       .  S
C2831      C2832   1.425       .  A
C2831      C2855   1.500       .  S
C2832      C2833   1.429       .  A
C2832      H2836   1.082       .  S
C2833      C2834   1.408       .  A
C2833      C2923   1.497       .  S
C2834      H2837   1.083       .  S
C2838      C2839   1.395       .  A
C2838      C2843   1.390       .  A
C2838      C2954   1.484       .  S
C2839      C2840   1.407       .  A
C2839      H2844   1.082       .  S
C2840      C2841   1.427       .  A
C2840      C2892   1.497       .  S
C2841      C2842   1.425       .  A
C2841      H2845   1.082       .  S
C2842      C2843   1.403       .  A
C2842      C2849   1.500       .  S
C2843      H2846   1.083       .  S
O2847     Cr2865   2.002       .  S
O2847      C2855   1.262       .  A
O2848     Cr2865   2.001       .  S
O2848      C2849   1.271       .  A
C2849      O2850   1.262       .  A
O2850     Cr2866   2.001       .  S
O2851     Cr2866   1.994       .  S
O2851      C2852   1.268       .  A
C2852      O2853   1.260       .  A
O2853     Cr2867   1.997       .  S
O2854     Cr2867   1.996       .  S
O2854      C2855   1.271       .  A
O2856     Cr2865   1.996       .  S
O2856      C2864   1.269       .  A
O2857     Cr2865   1.998       .  S
O2857      C2858   1.261       .  A
C2858      O2859   1.267       .  A
O2859     Cr2866   1.996       .  S
O2860     Cr2866   1.987       .  S
O2860      C2861   1.260       .  A
C2861      O2862   1.268       .  A
O2862     Cr2867   2.001       .  S
O2863     Cr2867   1.991       .  S
O2863      C2864   1.259       .  A
Cr2865     O2868   1.785       .  S
Cr2866     O2868   1.785       .  S
Cr2867     O2868   1.788       .  S
C2869      C2870   1.388       .  A
C2869      C2874   1.386       .  A
C2869      C2987   1.460       .  S
C2870      C2871   1.404       .  A
C2870      H2875   1.084       .  S
C2871      C2872   1.422       .  A
C2871      C2889   1.485       .  S
C2872      C2873   1.421       .  A
C2872      H2876   1.083       .  S
C2873      C2874   1.399       .  A
C2873      C2942   1.488       .  S
C2874      H2877   1.085       .  S
O2878     Cr2896   1.987       .  S
O2878      C2886   1.266       .  A
O2879     Cr2896   1.994       .  S
O2879      C2880   1.261       .  A
C2880      O2881   1.267       .  A
O2881     Cr2897   1.999       .  S
O2882     Cr2897   1.996       .  S
O2882      C2883   1.261       .  A
C2883      O2884   1.269       .  A
O2884     Cr2898   1.996       .  S
O2885     Cr2898   2.005       .  S
O2885      C2886   1.262       .  A
O2887     Cr2896   2.005       .  S
O2887      C2895   1.262       .  A
O2888     Cr2896   1.994       .  S
O2888      C2889   1.267       .  A
C2889      O2890   1.261       .  A
O2890     Cr2897   1.991       .  S
O2891     Cr2897   1.996       .  S
O2891      C2892   1.268       .  A
C2892      O2893   1.262       .  A
O2893     Cr2898   2.002       .  S
O2894     Cr2898   1.994       .  S
O2894      C2895   1.270       .  A
Cr2896     O2899   1.788       .  S
Cr2897     O2899   1.788       .  S
Cr2898     O2899   1.785       .  S
C2900      C2901   1.397       .  A
C2900      C2905   1.388       .  A
C2900      C2957   1.483       .  S
C2901      C2902   1.406       .  A
C2901      H2906   1.083       .  S
C2902      C2903   1.424       .  A
C2902      C2948   1.489       .  S
C2903      C2904   1.420       .  A
C2903      H2907   1.083       .  S
C2904      C2905   1.402       .  A
C2904      C2926   1.494       .  S
C2905      H2908   1.083       .  S
O2909     Cr2927   2.001       .  S
O2909      C2917   1.270       .  A
O2910     Cr2927   1.989       .  S
O2910      C2911   1.259       .  A
C2911      O2912   1.268       .  A
O2912     Cr2928   1.992       .  S
O2913     Cr2928   1.999       .  S
O2913      C2914   1.261       .  A
C2914      O2915   1.267       .  A
O2915     Cr2929   1.995       .  S
O2916     Cr2929   1.997       .  S
O2916      C2917   1.262       .  A
O2918     Cr2927   1.997       .  S
O2918      C2926   1.260       .  A
O2919     Cr2927   1.995       .  S
O2919      C2920   1.270       .  A
C2920      O2921   1.261       .  A
O2921     Cr2928   1.991       .  S
O2922     Cr2928   2.003       .  S
O2922      C2923   1.270       .  A
C2923      O2924   1.263       .  A
O2924     Cr2929   2.003       .  S
O2925     Cr2929   1.992       .  S
O2925      C2926   1.267       .  A
Cr2927     O2930   1.788       .  S
Cr2928     O2930   1.785       .  S
Cr2929     O2930   1.782       .  S
O2931     Cr2949   1.995       .  S
O2931      C2939   1.261       .  A
O2932     Cr2949   1.997       .  S
O2932      C2933   1.270       .  A
C2933      O2934   1.259       .  A
O2934     Cr2950   1.990       .  S
O2935     Cr2950   1.998       .  S
O2935      C2936   1.272       .  A
C2936      O2937   1.261       .  A
O2937     Cr2951   1.997       .  S
O2938     Cr2951   2.002       .  S
O2938      C2939   1.270       .  A
O2940     Cr2949   2.006       .  S
O2940      C2948   1.270       .  A
O2941     Cr2949   1.984       .  S
O2941      C2942   1.259       .  A
C2942      O2943   1.270       .  A
O2943     Cr2950   1.999       .  S
O2944     Cr2950   1.995       .  S
O2944      C2945   1.259       .  A
C2945      O2946   1.268       .  A
O2946     Cr2951   1.996       .  S
O2947     Cr2951   1.989       .  S
O2947      C2948   1.260       .  A
Cr2949     O2952   1.785       .  S
Cr2950     O2952   1.786       .  S
Cr2951     O2952   1.783       .  S
C2953      C2954   1.403       .  A
C2953      C2958   1.378       .  A
C2953      H2960   1.083       .  S
C2954      C2955   1.408       .  A
C2955      C2956   1.399       .  A
C2955      F2962   1.357       .  S
C2956      C2957   1.407       .  A
C2956      H2961   1.084       .  S
C2957      C2958   1.412       .  A
C2958      F2959   1.358       .  S
C2963      C2964   1.404       .  A
C2963      C2968   1.377       .  A
C2963      H2970   1.082       .  S
C2964      C2965   1.408       .  A
C2965      C2966   1.400       .  A
C2965      F2972   1.357       .  S
C2966      C2967   1.407       .  A
C2966      H2971   1.083       .  S
C2967      C2968   1.411       .  A
C2968      F2969   1.358       .  S
C2973      C2974   1.407       .  A
C2973      C2978   1.400       .  A
C2973      H2980   1.084       .  S
C2974      C2975   1.411       .  A
C2975      C2976   1.376       .  A
C2975      F2982   1.359       .  S
C2976      C2977   1.402       .  A
C2976      H2981   1.083       .  S
C2977      C2978   1.408       .  A
C2978      F2979   1.357       .  S
C2983      C2984   1.399       .  A
C2983      C2988   1.368       .  A
C2983      H2990   1.085       .  S
C2984      C2985   1.405       .  A
C2985      C2986   1.402       .  A
C2985      F2992   1.357       .  S
C2986      C2987   1.405       .  A
C2986      H2991   1.084       .  S
C2987      C2988   1.404       .  A
C2988      F2989   1.360       .  S
C2993      C2994   1.407       .  A
C2993      C2998   1.397       .  A
C2993      H3000   1.083       .  S
C2994      C2995   1.412       .  A
C2995      C2996   1.379       .  A
C2995      F3002   1.357       .  S
C2996      C2997   1.404       .  A
C2996      H3001   1.082       .  S
C2997      C2998   1.407       .  A
C2998      F2999   1.356       .  S
C3003      C3004   1.408       .  A
C3003      C3008   1.398       .  A
C3003      H3010   1.084       .  S
C3004      C3005   1.413       .  A
C3005      C3006   1.379       .  A
C3005      F3012   1.357       .  S
C3006      C3007   1.405       .  A
C3006      H3011   1.082       .  S
C3007      C3008   1.408       .  A
C3008      F3009   1.356       .  S
C3013      C3018   1.400       .  A
C3015      C3016   1.378       .  A
C3016      C3017   1.404   1_565  A
C3016      H4045   1.082       .  S
C3017      C3018   1.408       .  A
C3018      F3019   1.357       .  S
H3021      C4040   1.082       .  S
C3023      C3024   1.401       .  A
C3023      C3028   1.369       .  A
C3023      H3030   1.084       .  S
C3024      C3025   1.406       .  A
C3025      C3026   1.402       .  A
C3025      F3032   1.357   1_545  S
C3033      C3034   1.408       .  A
C3033      H3040   1.083       .  S
C3035      F3042   1.358       .  S
C3036      H3041   1.082       .  S
C3037      C3038   1.408       .  A
C3038      F3039   1.357       .  S
C3043      H3050   1.083       .  S
C3044      C3045   1.412       .  A
C3045      F3052   1.358       .  S
C3046      C3047   1.404       .  A
C3046      H3051   1.082       .  S
C3048      F3049   1.357       .  S
C3053      C3566   1.402   1_545  A
C3053      C3058   1.376       .  A
C3053      H4084   1.083   1_545  S
C3054      C3565   1.402       .  A
C3054      C4079   1.408       .  A
C3055      C4078   1.408   1_545  A
C3055      C3056   1.400       .  A
C3055      F4086   1.357   1_545  S
C3056      C3057   1.408       .  A
C3056      H3061   1.084       .  S
C3058      F3059   1.358       .  S
H3060      C4077   1.083       .  S
F3062      C4079   1.357       .  S
C3063      C3068   1.371       .  A
C3063      H3070   1.085       .  S
C3064      C3065   1.406   1_554  A
C3065      C3066   1.401       .  A
C3065      F3072   1.357       .  S
C3066      C3579   1.405   1_546  A
C3066      H4095   1.084   1_545  S
C3067      C3578   1.405       .  A
C3067      C4092   1.407       .  A
C3068      C4091   1.407   1_545  A
C3068      F4093   1.360   1_545  S
F3069      C4092   1.360       .  S
H3071      C4090   1.084       .  S
C3073      C3074   1.385   1_556  A
C3073      C3590   1.391       .  A
C3073      C3579   1.466   1_556  S
C3074      C3075   1.400       .  A
C3074      H3079   1.085       .  S
C3075      C3588   1.419   1_554  A
C3075      C3423   1.490       .  S
C3076      C3587   1.419       .  A
C3076      C3077   1.423       .  A
C3076      H3080   1.083       .  S
C3077      C3078   1.405       .  A
C3077      C3373   1.485       .  S
C3078      C3585   1.391       .  A
C3078      H3081   1.084       .  S
C3082      C3083   1.399       .  A
C3082      C3599   1.390   1_554  A
C3082      C3569   1.483   1_554  S
C3083      C3084   1.406       .  A
C3083      H3088   1.083       .  S
C3084      C3085   1.421       .  A
C3084      C3204   1.486       .  S
C3085      C3598   1.416   1_554  A
C3085      H3089   1.082       .  S
C3086      C3597   1.416       .  A
C3086      C3087   1.400       .  A
C3086      C3238   1.490       .  S
C3087      C3594   1.390       .  A
C3087      H3090   1.083       .  S
C3091      C3096   1.387       .  A
C3091      C3556   1.484       .  S
C3092      C3093   1.407       .  A
C3092      H3097   1.083       .  S
C3093      C3429   1.492       .  S
C3094      C3095   1.421       .  A
C3094      H3098   1.082       .  S
C3095      C3096   1.402       .  A
C3095      C3287   1.496       .  S
C3096      H3099   1.083       .  S
C3100      C3101   1.399       .  A
C3100      C3546   1.485       .  S
C3101      C3102   1.406       .  A
C3101      H3106   1.083       .  S
C3102      C3103   1.423       .  A
C3102      C3232   1.490       .  S
C3103      H3107   1.083       .  S
C3104      C3105   1.401       .  A
C3104      C3395   1.493       .  S
C3105      H3108   1.082       .  S
C3109      C3110   1.394   1_556  A
C3109      C3626   1.390       .  A
C3109      C3566   1.483       .  S
C3110      C3111   1.407       .  A
C3110      H3115   1.082       .  S
C3111      C3112   1.428   1_554  A
C3111      C3281   1.499       .  S
C3112      C3625   1.427       .  A
C3112      H3116   1.082       .  S
C3113      C3624   1.427       .  A
C3113      C3114   1.402       .  A
C3113      C3327   1.502       .  S
C3114      C3621   1.390       .  A
C3114      H3117   1.083       .  S
C3118      C3631   1.384       .  A
C3118      C3123   1.387       .  A
C3118      C3576   1.468       .  S
C3119      C3630   1.384       .  A
C3119      C3120   1.402       .  A
C3119      H3124   1.084       .  S
C3120      C3121   1.426       .  A
C3120      C3448   1.497       .  S
C3121      C3634   1.428   1_554  A
C3121      H3125   1.082       .  S
C3122      C3633   1.428       .  A
C3122      C3123   1.408       .  A
C3122      C3398   1.495       .  S
C3123      H3126   1.084       .  S
C3127      C3132   1.391       .  A
C3127      C3559   1.486       .  S
C3128      C3129   1.407       .  A
C3128      H3133   1.082       .  S
C3129      C3370   1.492       .  S
C3130      C3131   1.421       .  A
C3130      H3134   1.083       .  S
C3131      C3132   1.402       .  A
C3131      C3324   1.495       .  S
C3132      H3135   1.083       .  S
C3136      C3141   1.397       .  A
C3136      C3549   1.486       .  S
C3137      C3138   1.402       .  A
C3137      H3142   1.083       .  S
C3138      C3451   1.496       .  S
C3139      C3140   1.424       .  A
C3139      H3143   1.083       .  S
C3140      C3141   1.407       .  A
C3140      C3207   1.493       .  S
C3141      H3144   1.082       .  S
C3145      C3150   1.386       .  A
C3145      C3536   1.467       .  S
C3146      C3147   1.407       .  A
C3146      H3151   1.084       .  S
C3147      C3284   1.491       .  S
C3148      C3149   1.423       .  A
C3148      H3152   1.082       .  S
C3149      C3150   1.402       .  A
C3149      C3201   1.494       .  S
C3150      H3153   1.084       .  S
C3154      C3155   1.399       .  A
C3154      C3526   1.486       .  S
C3155      C3156   1.407       .  A
C3155      H3160   1.082       .  S
C3156      C3157   1.422       .  A
C3156      C3392   1.490       .  S
C3157      H3161   1.082       .  S
C3158      C3159   1.400       .  A
C3158      C3376   1.491       .  S
C3159      H3162   1.082       .  S
C3163      C3164   1.395       .  A
C3163      C3529   1.486       .  S
C3164      C3165   1.409       .  A
C3164      H3169   1.082       .  S
C3165      C3166   1.428       .  A
C3165      C3235   1.499       .  S
C3166      H3170   1.082       .  S
C3167      C3168   1.403       .  A
C3167      C3321   1.501       .  S
C3168      H3171   1.083       .  S
C3172      C3173   1.383       .  A
C3172      C3539   1.464       .  S
C3173      C3174   1.400       .  A
C3173      H3178   1.085       .  S
C3174      C3175   1.425       .  A
C3174      C3445   1.495       .  S
C3175      H3179   1.083       .  S
C3176      C3177   1.407       .  A
C3176      C3426   1.492       .  S
C3177      H3180   1.084       .  S
C3181      C3182   1.398       .  A
C3181      C3186   1.388       .  A
C3181      C3516   1.488       .  S
C3182      C3183   1.405       .  A
C3182      H3187   1.082       .  S
C3183      C3184   1.425       .  A
C3183      C3195   1.491       .  S
C3184      C3185   1.421       .  A
C3184      H3188   1.083       .  S
C3185      C3186   1.402       .  A
C3185      C3457   1.495       .  S
C3186      H3189   1.082       .  S
O3190     Cr3208   2.001       .  S
O3190      C3198   1.272       .  A
O3191     Cr3208   2.002       .  S
O3191      C3192   1.261       .  A
C3192      C3223   1.501       .  S
C3192      O3193   1.270       .  A
O3193     Cr3209   1.993       .  S
O3194     Cr3209   1.994       .  S
O3194      C3195   1.259       .  A
C3195      O3196   1.268       .  A
O3196     Cr3210   2.001       .  S
O3197     Cr3210   1.991       .  S
O3197      C3198   1.261       .  A
C3198      C3254   1.492       .  S
O3199     Cr3208   1.996       .  S
O3199      C3207   1.260       .  A
O3200     Cr3208   1.996       .  S
O3200      C3201   1.270       .  A
C3201      O3202   1.260       .  A
O3202     Cr3209   1.993       .  S
O3203     Cr3209   2.009       .  S
O3203      C3204   1.270       .  A
C3204      O3205   1.260       .  A
O3205     Cr3210   1.985       .  S
O3206     Cr3210   1.997       .  S
O3206      C3207   1.267       .  A
Cr3208     O3211   1.785       .  S
Cr3209     O3211   1.786       .  S
Cr3210     O3211   1.784       .  S
C3212      C3213   1.395       .  A
C3212      C3217   1.387       .  A
C3212      C3506   1.485       .  S
C3213      C3214   1.405       .  A
C3213      H3218   1.082       .  S
C3214      C3215   1.428       .  A
C3214      C3247   1.494       .  S
C3215      C3216   1.424       .  A
C3215      H3219   1.082       .  S
C3216      C3217   1.403       .  A
C3216      C3407   1.499       .  S
C3217      H3220   1.082       .  S
C3221      C3222   1.382       .  A
C3221      C3226   1.384       .  A
C3221      C3496   1.461       .  S
C3222      C3223   1.403       .  A
C3222      H3227   1.084       .  S
C3223      C3224   1.429       .  A
C3224      C3225   1.432       .  A
C3224      H3228   1.082       .  S
C3225      C3226   1.407       .  A
C3225      C3244   1.497       .  S
C3226      H3229   1.084       .  S
O3230     Cr3248   1.989       .  S
O3230      C3238   1.259       .  A
O3231     Cr3248   2.006       .  S
O3231      C3232   1.270       .  A
C3232      O3233   1.261       .  A
O3233     Cr3249   1.989       .  S
O3234     Cr3249   1.996       .  S
O3234      C3235   1.268       .  A
C3235      O3236   1.263       .  A
O3236     Cr3250   2.008       .  S
O3237     Cr3250   1.996       .  S
O3237      C3238   1.268       .  A
O3239     Cr3248   2.002       .  S
O3239      C3247   1.271       .  A
O3240     Cr3248   1.991       .  S
O3240      C3241   1.259       .  A
C3241      C3303   1.490       .  S
C3241      O3242   1.267       .  A
O3242     Cr3249   1.993       .  S
O3243     Cr3249   2.006       .  S
O3243      C3244   1.263       .  A
C3244      O3245   1.269       .  A
O3245     Cr3250   1.995       .  S
O3246     Cr3250   1.997       .  S
O3246      C3247   1.261       .  A
Cr3248     O3251   1.787       .  S
Cr3249     O3251   1.782       .  S
Cr3250     O3251   1.784       .  S
C3252      C3253   1.390       .  A
C3252      C3257   1.394       .  A
C3252      C3489   1.480       .  S
C3253      C3254   1.402       .  A
C3253      H3258   1.083       .  S
C3254      C3255   1.421       .  A
C3255      C3256   1.422       .  A
C3255      H3259   1.082       .  S
C3256      C3257   1.407       .  A
C3256      C3278   1.491       .  S
C3257      H3260   1.083       .  S
C3261      C3262   1.392       .  A
C3261      C3266   1.398       .  A
C3261      C3519   1.488       .  S
C3262      C3263   1.401       .  A
C3262      H3267   1.082       .  S
C3263      C3264   1.419       .  A
C3263      C3432   1.492       .  S
C3264      C3265   1.421       .  A
C3264      H3268   1.082       .  S
C3265      C3266   1.406       .  A
C3265      C3272   1.490       .  S
C3266      H3269   1.081       .  S
O3270     Cr3288   1.998       .  S
O3270      C3278   1.261       .  A
O3271     Cr3288   1.996       .  S
O3271      C3272   1.268       .  A
C3272      O3273   1.261       .  A
O3273     Cr3289   1.996       .  S
O3274     Cr3289   1.993       .  S
O3274      C3275   1.266       .  A
C3275      C3294   1.488       .  S
C3275      O3276   1.260       .  A
O3276     Cr3290   1.995       .  S
O3277     Cr3290   1.990       .  S
O3277      C3278   1.266       .  A
O3279     Cr3288   1.991       .  S
O3279      C3287   1.269       .  A
O3280     Cr3288   2.006       .  S
O3280      C3281   1.263       .  A
C3281      O3282   1.268       .  A
O3282     Cr3289   1.998       .  S
O3283     Cr3289   1.998       .  S
O3283      C3284   1.263       .  A
C3284      O3285   1.268       .  A
O3285     Cr3290   1.994       .  S
O3286     Cr3290   2.001       .  S
O3286      C3287   1.262       .  A
Cr3288     O3291   1.784       .  S
Cr3289     O3291   1.786       .  S
Cr3290     O3291   1.787       .  S
C3292      C3293   1.397       .  A
C3292      C3297   1.392       .  A
C3292      C3476   1.485       .  S
C3293      C3294   1.407       .  A
C3293      H3298   1.082       .  S
C3294      C3295   1.420       .  A
C3295      C3296   1.418       .  A
C3295      H3299   1.082       .  S
C3296      C3297   1.401       .  A
C3296      C3330   1.489       .  S
C3297      H3300   1.083       .  S
C3301      C3302   1.388       .  A
C3301      C3306   1.397       .  A
C3301      C3486   1.478       .  S
C3302      C3303   1.400       .  A
C3302      H3307   1.084       .  S
C3303      C3304   1.417       .  A
C3304      C3305   1.422       .  A
C3304      H3308   1.083       .  S
C3305      C3306   1.406       .  A
C3305      C3333   1.486       .  S
C3306      H3309   1.083       .  S
C3310      C3311   1.390       .  A
C3310      C3315   1.396       .  A
C3310      C3509   1.485       .  S
C3311      C3312   1.402       .  A
C3311      H3316   1.082       .  S
C3312      C3313   1.422       .  A
C3312      C3364   1.495       .  S
C3313      C3314   1.424       .  A
C3313      H3317   1.082       .  S
C3314      C3315   1.405       .  A
C3314      C3336   1.492       .  S
C3315      H3318   1.081       .  S
O3319     Cr3337   2.006       .  S
O3319      C3327   1.273       .  A
O3320     Cr3337   2.001       .  S
O3320      C3321   1.262       .  A
C3321      O3322   1.271       .  A
O3322     Cr3338   1.999       .  S
O3323     Cr3338   1.994       .  S
O3323      C3324   1.260       .  A
C3324      O3325   1.269       .  A
O3325     Cr3339   1.998       .  S
O3326     Cr3339   2.000       .  S
O3326      C3327   1.262       .  A
O3328     Cr3337   1.996       .  S
O3328      C3336   1.260       .  A
O3329     Cr3337   1.998       .  S
O3329      C3330   1.269       .  A
C3330      O3331   1.259       .  A
O3331     Cr3338   1.988       .  S
O3332     Cr3338   2.005       .  S
O3332      C3333   1.269       .  A
C3333      O3334   1.260       .  A
O3334     Cr3339   1.986       .  S
O3335     Cr3339   1.998       .  S
O3335      C3336   1.268       .  A
Cr3337     O3340   1.785       .  S
Cr3338     O3340   1.786       .  S
Cr3339     O3340   1.783       .  S
C3341      C3342   1.385       .  A
C3341      C3346   1.395       .  A
C3341      C3479   1.483       .  S
C3342      C3343   1.402       .  A
C3342      H3347   1.083       .  S
C3343      C3344   1.425       .  A
C3343      C3367   1.500       .  S
C3344      C3345   1.429       .  A
C3344      H3348   1.082       .  S
C3345      C3346   1.408       .  A
C3345      C3435   1.497       .  S
C3346      H3349   1.083       .  S
C3350      C3351   1.395       .  A
C3350      C3355   1.390       .  A
C3350      C3466   1.484       .  S
C3351      C3352   1.407       .  A
C3351      H3356   1.082       .  S
C3352      C3353   1.427       .  A
C3352      C3404   1.497       .  S
C3353      C3354   1.425       .  A
C3353      H3357   1.082       .  S
C3354      C3355   1.403       .  A
C3354      C3361   1.500       .  S
C3355      H3358   1.083       .  S
O3359     Cr3377   2.002       .  S
O3359      C3367   1.262       .  A
O3360     Cr3377   2.001       .  S
O3360      C3361   1.271       .  A
C3361      O3362   1.262       .  A
O3362     Cr3378   2.001       .  S
O3363     Cr3378   1.994       .  S
O3363      C3364   1.268       .  A
C3364      O3365   1.260       .  A
O3365     Cr3379   1.997       .  S
O3366     Cr3379   1.996       .  S
O3366      C3367   1.271       .  A
O3368     Cr3377   1.996       .  S
O3368      C3376   1.269       .  A
O3369     Cr3377   1.998       .  S
O3369      C3370   1.261       .  A
C3370      O3371   1.267       .  A
O3371     Cr3378   1.996       .  S
O3372     Cr3378   1.987       .  S
O3372      C3373   1.260       .  A
C3373      O3374   1.268       .  A
O3374     Cr3379   2.001       .  S
O3375     Cr3379   1.991       .  S
O3375      C3376   1.259       .  A
Cr3377     O3380   1.785       .  S
Cr3378     O3380   1.785       .  S
Cr3379     O3380   1.788       .  S
C3381      C3382   1.388       .  A
C3381      C3386   1.386       .  A
C3381      C3499   1.460       .  S
C3382      C3383   1.404       .  A
C3382      H3387   1.084       .  S
C3383      C3384   1.422       .  A
C3383      C3401   1.485       .  S
C3384      C3385   1.421       .  A
C3384      H3388   1.083       .  S
C3385      C3386   1.399       .  A
C3385      C3454   1.488       .  S
C3386      H3389   1.085       .  S
O3390     Cr3408   1.987       .  S
O3390      C3398   1.266       .  A
O3391     Cr3408   1.994       .  S
O3391      C3392   1.261       .  A
C3392      O3393   1.267       .  A
O3393     Cr3409   1.999       .  S
O3394     Cr3409   1.996       .  S
O3394      C3395   1.261       .  A
C3395      O3396   1.269       .  A
O3396     Cr3410   1.996       .  S
O3397     Cr3410   2.005       .  S
O3397      C3398   1.262       .  A
O3399     Cr3408   2.005       .  S
O3399      C3407   1.262       .  A
O3400     Cr3408   1.994       .  S
O3400      C3401   1.267       .  A
C3401      O3402   1.261       .  A
O3402     Cr3409   1.991       .  S
O3403     Cr3409   1.996       .  S
O3403      C3404   1.268       .  A
C3404      O3405   1.262       .  A
O3405     Cr3410   2.002       .  S
O3406     Cr3410   1.994       .  S
O3406      C3407   1.270       .  A
Cr3408     O3411   1.788       .  S
Cr3409     O3411   1.788       .  S
Cr3410     O3411   1.785       .  S
C3412      C3413   1.397       .  A
C3412      C3417   1.388       .  A
C3412      C3469   1.483       .  S
C3413      C3414   1.406       .  A
C3413      H3418   1.083       .  S
C3414      C3415   1.424       .  A
C3414      C3460   1.489       .  S
C3415      C3416   1.420       .  A
C3415      H3419   1.083       .  S
C3416      C3417   1.402       .  A
C3416      C3438   1.494       .  S
C3417      H3420   1.083       .  S
O3421     Cr3439   2.001       .  S
O3421      C3429   1.270       .  A
O3422     Cr3439   1.989       .  S
O3422      C3423   1.259       .  A
C3423      O3424   1.268       .  A
O3424     Cr3440   1.992       .  S
O3425     Cr3440   1.999       .  S
O3425      C3426   1.261       .  A
C3426      O3427   1.267       .  A
O3427     Cr3441   1.995       .  S
O3428     Cr3441   1.997       .  S
O3428      C3429   1.262       .  A
O3430     Cr3439   1.997       .  S
O3430      C3438   1.260       .  A
O3431     Cr3439   1.995       .  S
O3431      C3432   1.270       .  A
C3432      O3433   1.261       .  A
O3433     Cr3440   1.991       .  S
O3434     Cr3440   2.003       .  S
O3434      C3435   1.270       .  A
C3435      O3436   1.263       .  A
O3436     Cr3441   2.003       .  S
O3437     Cr3441   1.992       .  S
O3437      C3438   1.267       .  A
Cr3439     O3442   1.788       .  S
Cr3440     O3442   1.785       .  S
Cr3441     O3442   1.782       .  S
O3443     Cr3461   1.995       .  S
O3443      C3451   1.261       .  A
O3444     Cr3461   1.997       .  S
O3444      C3445   1.270       .  A
C3445      O3446   1.259       .  A
O3446     Cr3462   1.990       .  S
O3447     Cr3462   1.998       .  S
O3447      C3448   1.272       .  A
C3448      O3449   1.261       .  A
O3449     Cr3463   1.997       .  S
O3450     Cr3463   2.002       .  S
O3450      C3451   1.270       .  A
O3452     Cr3461   2.006       .  S
O3452      C3460   1.270       .  A
O3453     Cr3461   1.984       .  S
O3453      C3454   1.259       .  A
C3454      O3455   1.270       .  A
O3455     Cr3462   1.999       .  S
O3456     Cr3462   1.996       .  S
O3456      C3457   1.259       .  A
C3457      O3458   1.268       .  A
O3458     Cr3463   1.996       .  S
O3459     Cr3463   1.989       .  S
O3459      C3460   1.260       .  A
Cr3461     O3464   1.785       .  S
Cr3462     O3464   1.786       .  S
Cr3463     O3464   1.783       .  S
C3465      C3466   1.403       .  A
C3465      C3470   1.378       .  A
C3465      H3472   1.083       .  S
C3466      C3467   1.408       .  A
C3467      C3468   1.399       .  A
C3467      F3474   1.357       .  S
C3468      C3469   1.407       .  A
C3468      H3473   1.084       .  S
C3469      C3470   1.412       .  A
C3470      F3471   1.358       .  S
C3475      C3476   1.404       .  A
C3475      C3480   1.377       .  A
C3475      H3482   1.082       .  S
C3476      C3477   1.408       .  A
C3477      C3478   1.400       .  A
C3477      F3484   1.357       .  S
C3478      C3479   1.407       .  A
C3478      H3483   1.083       .  S
C3479      C3480   1.411       .  A
C3480      F3481   1.358       .  S
C3485      C3486   1.407       .  A
C3485      C3490   1.400       .  A
C3485      H3492   1.084       .  S
C3486      C3487   1.411       .  A
C3487      C3488   1.376       .  A
C3487      F3494   1.359       .  S
C3488      C3489   1.402       .  A
C3488      H3493   1.083       .  S
C3489      C3490   1.408       .  A
C3490      F3491   1.357       .  S
C3495      C3496   1.399       .  A
C3495      C3500   1.368       .  A
C3495      H3502   1.085       .  S
C3496      C3497   1.405       .  A
C3497      C3498   1.402       .  A
C3497      F3504   1.357       .  S
C3498      C3499   1.405       .  A
C3498      H3503   1.084       .  S
C3499      C3500   1.404       .  A
C3500      F3501   1.360       .  S
C3505      C3506   1.407       .  A
C3505      C3510   1.397       .  A
C3505      H3512   1.083       .  S
C3506      C3507   1.412       .  A
C3507      C3508   1.379       .  A
C3507      F3514   1.357       .  S
C3508      C3509   1.404       .  A
C3508      H3513   1.082       .  S
C3509      C3510   1.407       .  A
C3510      F3511   1.356       .  S
C3515      C3516   1.408       .  A
C3515      C3520   1.398       .  A
C3515      H3522   1.084       .  S
C3516      C3517   1.413       .  A
C3517      C3518   1.379       .  A
C3517      F3524   1.357       .  S
C3518      C3519   1.405       .  A
C3518      H3523   1.082       .  S
C3519      C3520   1.408       .  A
C3520      F3521   1.356       .  S
C3525      C3530   1.400       .  A
C3527      C3528   1.378       .  A
C3528      C3529   1.404       .  A
C3529      C3530   1.408       .  A
C3530      F3531   1.357       .  S
C3535      C3536   1.401       .  A
C3535      C3540   1.369       .  A
C3535      H3542   1.084       .  S
C3536      C3537   1.406       .  A
C3537      C3538   1.402       .  A
C3537      F3544   1.357       .  S
C3545      C3546   1.408       .  A
C3545      C4062   1.399       .  A
C3545      H3552   1.083       .  S
C3547      C4060   1.379       .  A
C3547      F3554   1.358       .  S
C3548      C4059   1.379   1_554  A
C3548      H3553   1.082       .  S
C3549      C3550   1.408       .  A
C3550      C4057   1.399   1_554  A
C3550      F3551   1.357       .  S
C3555      C4072   1.400   1_554  A
C3555      H3562   1.083       .  S
C3556      C3557   1.412       .  A
C3557      C4070   1.378   1_554  A
C3557      F3564   1.358       .  S
C3558      C4069   1.378       .  A
C3558      C3559   1.404       .  A
C3558      H3563   1.082       .  S
C3560      C4067   1.400       .  A
C3560      F3561   1.357       .  S
C3565      C3570   1.376       .  A
C3567      C3568   1.400       .  A
C3568      C3569   1.408   1_554  A
C3568      H3573   1.083       .  S
C3569      C4082   1.412       .  A
C3570      C4081   1.412       .  A
C3570      F3571   1.358       .  S
C3575      C4088   1.400       .  A
C3575      C3580   1.371       .  A
C3575      H3582   1.085       .  S
C3576      C4087   1.400       .  A
C3576      C3577   1.406       .  A
C3577      C3578   1.401       .  A
C3577      F3584   1.357       .  S
C3585      C3586   1.385       .  A
C3585      C4091   1.466       .  S
C3586      C3587   1.400       .  A
C3586      H3591   1.085       .  S
C3587      C3935   1.490       .  S
C3588      C3589   1.423       .  A
C3588      H3592   1.083       .  S
C3589      C3590   1.405       .  A
C3589      C3885   1.485       .  S
C3590      H3593   1.084       .  S
C3594      C3595   1.399       .  A
C3594      C4081   1.483       .  S
C3595      C3596   1.406       .  A
C3595      H3600   1.083       .  S
C3596      C3597   1.421       .  A
C3596      C3716   1.486       .  S
C3597      H3601   1.083       .  S
C3598      C3599   1.400       .  A
C3598      C3750   1.490       .  S
C3599      H3602   1.083       .  S
C3603      C3608   1.387       .  A
C3603      C4068   1.484       .  S
C3604      C3605   1.407       .  A
C3604      H3609   1.083       .  S
C3605      C3941   1.492       .  S
C3606      C3607   1.421       .  A
C3606      H3610   1.082       .  S
C3607      C3608   1.402       .  A
C3607      C3799   1.496       .  S
C3608      H3611   1.083       .  S
C3612      C3613   1.399       .  A
C3612      C4058   1.485       .  S
C3613      C3614   1.406       .  A
C3613      H3618   1.083       .  S
C3614      C3615   1.423       .  A
C3614      C3744   1.490       .  S
C3615      H3619   1.083       .  S
C3616      C3617   1.401       .  A
C3616      C3907   1.493       .  S
C3617      H3620   1.082       .  S
C3621      C3622   1.394       .  A
C3621      C4078   1.483       .  S
C3622      C3623   1.407       .  A
C3622      H3627   1.083       .  S
C3623      C3624   1.428       .  A
C3623      C3793   1.499       .  S
C3624      H3628   1.082       .  S
C3625      C3626   1.402       .  A
C3625      C3839   1.502       .  S
C3626      H3629   1.083       .  S
C3630      C3635   1.387   1_554  A
C3630      C4088   1.468       .  S
C3631      C3632   1.402       .  A
C3631      H3636   1.084       .  S
C3632      C3633   1.426       .  A
C3632      C3960   1.497       .  S
C3633      H3637   1.082       .  S
C3634      C3635   1.408       .  A
C3634      C3910   1.495       .  S
C3635      H3638   1.084       .  S
C3639      C3644   1.391       .  A
C3639      C4071   1.486       .  S
C3640      C3641   1.407       .  A
C3640      H3645   1.082       .  S
C3641      C3882   1.492       .  S
C3642      C3643   1.421       .  A
C3642      H3646   1.083       .  S
C3643      C3644   1.402       .  A
C3643      C3836   1.495       .  S
C3644      H3647   1.083       .  S
C3648      C3653   1.397       .  A
C3648      C4061   1.486       .  S
C3649      C3650   1.402       .  A
C3649      H3654   1.083       .  S
C3650      C3963   1.495       .  S
C3651      C3652   1.424       .  A
C3651      H3655   1.083       .  S
C3652      C3653   1.407       .  A
C3652      C3719   1.493       .  S
C3653      H3656   1.082       .  S
C3657      C3662   1.386       .  A
C3657      C4048   1.467       .  S
C3658      C3659   1.407       .  A
C3658      H3663   1.084       .  S
C3659      C3796   1.491       .  S
C3660      C3661   1.423       .  A
C3660      H3664   1.082       .  S
C3661      C3662   1.402       .  A
C3661      C3713   1.494       .  S
C3662      H3665   1.084       .  S
C3666      C3667   1.399       .  A
C3666      C4038   1.486       .  S
C3667      C3668   1.407       .  A
C3667      H3672   1.082       .  S
C3668      C3669   1.422       .  A
C3668      C3904   1.490       .  S
C3669      H3673   1.082       .  S
C3670      C3671   1.400       .  A
C3670      C3888   1.491       .  S
C3671      H3674   1.082       .  S
C3675      C3676   1.395       .  A
C3675      C4041   1.486       .  S
C3676      C3677   1.409       .  A
C3676      H3681   1.082       .  S
C3677      C3678   1.428       .  A
C3677      C3747   1.499       .  S
C3678      H3682   1.082       .  S
C3679      C3680   1.403       .  A
C3679      C3833   1.501       .  S
C3680      H3683   1.083       .  S
C3684      C3685   1.383       .  A
C3684      C4051   1.464       .  S
C3685      C3686   1.400       .  A
C3685      H3690   1.085       .  S
C3686      C3687   1.425       .  A
C3686      C3957   1.495       .  S
C3687      H3691   1.083       .  S
C3688      C3689   1.407       .  A
C3688      C3938   1.492       .  S
C3689      H3692   1.084       .  S
C3693      C3694   1.398       .  A
C3693      C3698   1.388       .  A
C3693      C4028   1.488       .  S
C3694      C3695   1.405       .  A
C3694      H3699   1.082       .  S
C3695      C3696   1.425       .  A
C3695      C3707   1.491       .  S
C3696      C3697   1.421       .  A
C3696      H3700   1.083       .  S
C3697      C3698   1.402       .  A
C3697      C3969   1.495       .  S
C3698      H3701   1.082       .  S
O3702     Cr3720   2.001       .  S
O3702      C3710   1.272       .  A
O3703     Cr3720   2.002       .  S
O3703      C3704   1.261       .  A
C3704      C3735   1.501       .  S
C3704      O3705   1.270       .  A
O3705     Cr3721   1.993       .  S
O3706     Cr3721   1.994       .  S
O3706      C3707   1.259       .  A
C3707      O3708   1.268       .  A
O3708     Cr3722   2.001       .  S
O3709     Cr3722   1.991       .  S
O3709      C3710   1.261       .  A
C3710      C3766   1.492       .  S
O3711     Cr3720   1.996       .  S
O3711      C3719   1.260       .  A
O3712     Cr3720   1.996       .  S
O3712      C3713   1.270       .  A
C3713      O3714   1.259       .  A
O3714     Cr3721   1.993       .  S
O3715     Cr3721   2.009       .  S
O3715      C3716   1.270       .  A
C3716      O3717   1.260       .  A
O3717     Cr3722   1.985       .  S
O3718     Cr3722   1.997       .  S
O3718      C3719   1.267       .  A
Cr3720     O3723   1.785       .  S
Cr3721     O3723   1.786       .  S
Cr3722     O3723   1.784       .  S
C3724      C3725   1.395       .  A
C3724      C3729   1.387       .  A
C3724      C4018   1.485       .  S
C3725      C3726   1.405       .  A
C3725      H3730   1.082       .  S
C3726      C3727   1.428       .  A
C3726      C3759   1.494       .  S
C3727      C3728   1.424       .  A
C3727      H3731   1.082       .  S
C3728      C3729   1.403       .  A
C3728      C3919   1.499       .  S
C3729      H3732   1.082       .  S
C3733      C3734   1.382       .  A
C3733      C3738   1.384       .  A
C3733      C4008   1.461       .  S
C3734      C3735   1.403       .  A
C3734      H3739   1.084       .  S
C3735      C3736   1.429       .  A
C3736      C3737   1.432       .  A
C3736      H3740   1.082       .  S
C3737      C3738   1.407       .  A
C3737      C3756   1.497       .  S
C3738      H3741   1.084       .  S
O3742     Cr3760   1.989       .  S
O3742      C3750   1.259       .  A
O3743     Cr3760   2.006       .  S
O3743      C3744   1.270       .  A
C3744      O3745   1.261       .  A
O3745     Cr3761   1.989       .  S
O3746     Cr3761   1.996       .  S
O3746      C3747   1.268       .  A
C3747      O3748   1.263       .  A
O3748     Cr3762   2.008       .  S
O3749     Cr3762   1.996       .  S
O3749      C3750   1.268       .  A
O3751     Cr3760   2.002       .  S
O3751      C3759   1.271       .  A
O3752     Cr3760   1.991       .  S
O3752      C3753   1.259       .  A
C3753      C3815   1.490       .  S
C3753      O3754   1.267       .  A
O3754     Cr3761   1.993       .  S
O3755     Cr3761   2.006       .  S
O3755      C3756   1.263       .  A
C3756      O3757   1.269       .  A
O3757     Cr3762   1.995       .  S
O3758     Cr3762   1.997       .  S
O3758      C3759   1.261       .  A
Cr3760     O3763   1.787       .  S
Cr3761     O3763   1.782       .  S
Cr3762     O3763   1.784       .  S
C3764      C3765   1.390       .  A
C3764      C3769   1.394       .  A
C3764      C4001   1.480       .  S
C3765      C3766   1.402       .  A
C3765      H3770   1.083       .  S
C3766      C3767   1.421       .  A
C3767      C3768   1.422       .  A
C3767      H3771   1.082       .  S
C3768      C3769   1.407       .  A
C3768      C3790   1.491       .  S
C3769      H3772   1.083       .  S
C3773      C3774   1.392       .  A
C3773      C3778   1.397       .  A
C3773      C4031   1.488       .  S
C3774      C3775   1.401       .  A
C3774      H3779   1.082       .  S
C3775      C3776   1.419       .  A
C3775      C3944   1.492       .  S
C3776      C3777   1.421       .  A
C3776      H3780   1.082       .  S
C3777      C3778   1.406       .  A
C3777      C3784   1.490       .  S
C3778      H3781   1.081       .  S
O3782     Cr3800   1.997       .  S
O3782      C3790   1.261       .  A
O3783     Cr3800   1.996       .  S
O3783      C3784   1.268       .  A
C3784      O3785   1.261       .  A
O3785     Cr3801   1.996       .  S
O3786     Cr3801   1.993       .  S
O3786      C3787   1.266       .  A
C3787      C3806   1.488       .  S
C3787      O3788   1.261       .  A
O3788     Cr3802   1.995       .  S
O3789     Cr3802   1.990       .  S
O3789      C3790   1.266       .  A
O3791     Cr3800   1.991       .  S
O3791      C3799   1.269       .  A
O3792     Cr3800   2.006       .  S
O3792      C3793   1.263       .  A
C3793      O3794   1.268       .  A
O3794     Cr3801   1.998       .  S
O3795     Cr3801   1.998       .  S
O3795      C3796   1.263       .  A
C3796      O3797   1.268       .  A
O3797     Cr3802   1.994       .  S
O3798     Cr3802   2.001       .  S
O3798      C3799   1.262       .  A
Cr3800     O3803   1.784       .  S
Cr3801     O3803   1.786       .  S
Cr3802     O3803   1.787       .  S
C3804      C3805   1.397       .  A
C3804      C3809   1.392       .  A
C3804      C3988   1.485       .  S
C3805      C3806   1.407       .  A
C3805      H3810   1.082       .  S
C3806      C3807   1.420       .  A
C3807      C3808   1.418       .  A
C3807      H3811   1.082       .  S
C3808      C3809   1.401       .  A
C3808      C3842   1.489       .  S
C3809      H3812   1.083       .  S
C3813      C3814   1.388       .  A
C3813      C3818   1.397       .  A
C3813      C3998   1.478       .  S
C3814      C3815   1.400       .  A
C3814      H3819   1.084       .  S
C3815      C3816   1.417       .  A
C3816      C3817   1.422       .  A
C3816      H3820   1.083       .  S
C3817      C3818   1.406       .  A
C3817      C3845   1.486       .  S
C3818      H3821   1.083       .  S
C3822      C3823   1.390       .  A
C3822      C3827   1.396       .  A
C3822      C4021   1.485       .  S
C3823      C3824   1.402       .  A
C3823      H3828   1.082       .  S
C3824      C3825   1.422       .  A
C3824      C3876   1.495       .  S
C3825      C3826   1.424       .  A
C3825      H3829   1.082       .  S
C3826      C3827   1.405       .  A
C3826      C3848   1.492       .  S
C3827      H3830   1.081       .  S
O3831     Cr3849   2.006       .  S
O3831      C3839   1.273       .  A
O3832     Cr3849   2.001       .  S
O3832      C3833   1.262       .  A
C3833      O3834   1.271       .  A
O3834     Cr3850   1.999       .  S
O3835     Cr3850   1.994       .  S
O3835      C3836   1.260       .  A
C3836      O3837   1.269       .  A
O3837     Cr3851   1.998       .  S
O3838     Cr3851   2.001       .  S
O3838      C3839   1.262       .  A
O3840     Cr3849   1.996       .  S
O3840      C3848   1.260       .  A
O3841     Cr3849   1.998       .  S
O3841      C3842   1.269       .  A
C3842      O3843   1.259       .  A
O3843     Cr3850   1.988       .  S
O3844     Cr3850   2.005       .  S
O3844      C3845   1.269       .  A
C3845      O3846   1.260       .  A
O3846     Cr3851   1.986       .  S
O3847     Cr3851   1.998       .  S
O3847      C3848   1.268       .  A
Cr3849     O3852   1.785       .  S
Cr3850     O3852   1.786       .  S
Cr3851     O3852   1.783       .  S
C3853      C3854   1.385       .  A
C3853      C3858   1.395       .  A
C3853      C3991   1.483       .  S
C3854      C3855   1.402       .  A
C3854      H3859   1.083       .  S
C3855      C3856   1.425       .  A
C3855      C3879   1.500       .  S
C3856      C3857   1.429       .  A
C3856      H3860   1.082       .  S
C3857      C3858   1.408       .  A
C3857      C3947   1.497       .  S
C3858      H3861   1.083       .  S
C3862      C3863   1.395       .  A
C3862      C3867   1.390       .  A
C3862      C3978   1.484       .  S
C3863      C3864   1.407       .  A
C3863      H3868   1.082       .  S
C3864      C3865   1.427       .  A
C3864      C3916   1.497       .  S
C3865      C3866   1.425       .  A
C3865      H3869   1.082       .  S
C3866      C3867   1.403       .  A
C3866      C3873   1.500       .  S
C3867      H3870   1.083       .  S
O3871     Cr3889   2.002       .  S
O3871      C3879   1.262       .  A
O3872     Cr3889   2.001       .  S
O3872      C3873   1.271       .  A
C3873      O3874   1.262       .  A
O3874     Cr3890   2.001       .  S
O3875     Cr3890   1.994       .  S
O3875      C3876   1.268       .  A
C3876      O3877   1.260       .  A
O3877     Cr3891   1.997       .  S
O3878     Cr3891   1.996       .  S
O3878      C3879   1.271       .  A
O3880     Cr3889   1.996       .  S
O3880      C3888   1.269       .  A
O3881     Cr3889   1.998       .  S
O3881      C3882   1.261       .  A
C3882      O3883   1.267       .  A
O3883     Cr3890   1.996       .  S
O3884     Cr3890   1.987       .  S
O3884      C3885   1.260       .  A
C3885      O3886   1.268       .  A
O3886     Cr3891   2.001       .  S
O3887     Cr3891   1.991       .  S
O3887      C3888   1.259       .  A
Cr3889     O3892   1.785       .  S
Cr3890     O3892   1.785       .  S
Cr3891     O3892   1.788       .  S
C3893      C3894   1.388       .  A
C3893      C3898   1.386       .  A
C3893      C4011   1.460       .  S
C3894      C3895   1.404       .  A
C3894      H3899   1.084       .  S
C3895      C3896   1.422       .  A
C3895      C3913   1.485       .  S
C3896      C3897   1.421       .  A
C3896      H3900   1.083       .  S
C3897      C3898   1.399       .  A
C3897      C3966   1.488       .  S
C3898      H3901   1.085       .  S
O3902     Cr3920   1.987       .  S
O3902      C3910   1.266       .  A
O3903     Cr3920   1.994       .  S
O3903      C3904   1.261       .  A
C3904      O3905   1.267       .  A
O3905     Cr3921   1.999       .  S
O3906     Cr3921   1.996       .  S
O3906      C3907   1.261       .  A
C3907      O3908   1.269       .  A
O3908     Cr3922   1.996       .  S
O3909     Cr3922   2.005       .  S
O3909      C3910   1.262       .  A
O3911     Cr3920   2.005       .  S
O3911      C3919   1.262       .  A
O3912     Cr3920   1.994       .  S
O3912      C3913   1.267       .  A
C3913      O3914   1.261       .  A
O3914     Cr3921   1.991       .  S
O3915     Cr3921   1.996       .  S
O3915      C3916   1.268       .  A
C3916      O3917   1.262       .  A
O3917     Cr3922   2.002       .  S
O3918     Cr3922   1.994       .  S
O3918      C3919   1.270       .  A
Cr3920     O3923   1.788       .  S
Cr3921     O3923   1.788       .  S
Cr3922     O3923   1.785       .  S
C3924      C3925   1.397       .  A
C3924      C3929   1.388       .  A
C3924      C3981   1.483       .  S
C3925      C3926   1.406       .  A
C3925      H3930   1.083       .  S
C3926      C3927   1.424       .  A
C3926      C3972   1.489       .  S
C3927      C3928   1.420       .  A
C3927      H3931   1.083       .  S
C3928      C3929   1.402       .  A
C3928      C3950   1.494       .  S
C3929      H3932   1.083       .  S
O3933     Cr3951   2.001       .  S
O3933      C3941   1.270       .  A
O3934     Cr3951   1.989       .  S
O3934      C3935   1.259       .  A
C3935      O3936   1.268       .  A
O3936     Cr3952   1.992       .  S
O3937     Cr3952   1.999       .  S
O3937      C3938   1.261       .  A
C3938      O3939   1.267       .  A
O3939     Cr3953   1.995       .  S
O3940     Cr3953   1.997       .  S
O3940      C3941   1.262       .  A
O3942     Cr3951   1.997       .  S
O3942      C3950   1.260       .  A
O3943     Cr3951   1.995       .  S
O3943      C3944   1.270       .  A
C3944      O3945   1.261       .  A
O3945     Cr3952   1.991       .  S
O3946     Cr3952   2.003       .  S
O3946      C3947   1.270       .  A
C3947      O3948   1.263       .  A
O3948     Cr3953   2.003       .  S
O3949     Cr3953   1.992       .  S
O3949      C3950   1.267       .  A
Cr3951     O3954   1.788       .  S
Cr3952     O3954   1.785       .  S
Cr3953     O3954   1.782       .  S
O3955     Cr3973   1.995       .  S
O3955      C3963   1.261       .  A
O3956     Cr3973   1.997       .  S
O3956      C3957   1.270       .  A
C3957      O3958   1.259       .  A
O3958     Cr3974   1.990       .  S
O3959     Cr3974   1.998       .  S
O3959      C3960   1.272       .  A
C3960      O3961   1.261       .  A
O3961     Cr3975   1.997       .  S
O3962     Cr3975   2.002       .  S
O3962      C3963   1.270       .  A
O3964     Cr3973   2.006       .  S
O3964      C3972   1.270       .  A
O3965     Cr3973   1.984       .  S
O3965      C3966   1.259       .  A
C3966      O3967   1.270       .  A
O3967     Cr3974   1.999       .  S
O3968     Cr3974   1.995       .  S
O3968      C3969   1.259       .  A
C3969      O3970   1.268       .  A
O3970     Cr3975   1.996       .  S
O3971     Cr3975   1.989       .  S
O3971      C3972   1.260       .  A
Cr3973     O3976   1.785       .  S
Cr3974     O3976   1.786       .  S
Cr3975     O3976   1.783       .  S
C3977      C3978   1.403       .  A
C3977      C3982   1.378       .  A
C3977      H3984   1.083       .  S
C3978      C3979   1.408       .  A
C3979      C3980   1.399       .  A
C3979      F3986   1.357       .  S
C3980      C3981   1.407       .  A
C3980      H3985   1.084       .  S
C3981      C3982   1.412       .  A
C3982      F3983   1.358       .  S
C3987      C3988   1.404       .  A
C3987      C3992   1.377       .  A
C3987      H3994   1.082       .  S
C3988      C3989   1.408       .  A
C3989      C3990   1.400       .  A
C3989      F3996   1.357       .  S
C3990      C3991   1.407       .  A
C3990      H3995   1.083       .  S
C3991      C3992   1.411       .  A
C3992      F3993   1.358       .  S
C3997      C3998   1.407       .  A
C3997      C4002   1.400       .  A
C3997      H4004   1.084       .  S
C3998      C3999   1.411       .  A
C3999      C4000   1.376       .  A
C3999      F4006   1.359       .  S
C4000      C4001   1.402       .  A
C4000      H4005   1.083       .  S
C4001      C4002   1.408       .  A
C4002      F4003   1.357       .  S
C4007      C4008   1.399       .  A
C4007      C4012   1.368       .  A
C4007      H4014   1.085       .  S
C4008      C4009   1.405       .  A
C4009      C4010   1.402       .  A
C4009      F4016   1.357       .  S
C4010      C4011   1.405       .  A
C4010      H4015   1.084       .  S
C4011      C4012   1.404       .  A
C4012      F4013   1.360       .  S
C4017      C4018   1.407       .  A
C4017      C4022   1.397       .  A
C4017      H4024   1.083       .  S
C4018      C4019   1.412       .  A
C4019      C4020   1.379       .  A
C4019      F4026   1.357       .  S
C4020      C4021   1.404       .  A
C4020      H4025   1.082       .  S
C4021      C4022   1.407       .  A
C4022      F4023   1.356       .  S
C4027      C4028   1.408       .  A
C4027      C4032   1.398       .  A
C4027      H4034   1.084       .  S
C4028      C4029   1.413       .  A
C4029      C4030   1.379       .  A
C4029      F4036   1.357       .  S
C4030      C4031   1.405       .  A
C4030      H4035   1.082       .  S
C4031      C4032   1.408       .  A
C4032      F4033   1.356       .  S
C4037      C4042   1.400       .  A
C4039      C4040   1.378       .  A
C4040      C4041   1.404       .  A
C4041      C4042   1.408       .  A
C4042      F4043   1.357       .  S
C4047      C4048   1.401       .  A
C4047      C4052   1.369       .  A
C4047      H4054   1.084       .  S
C4048      C4049   1.406       .  A
C4049      C4050   1.402       .  A
C4049      F4056   1.357       .  S
C4057      C4058   1.408       .  A
C4057      H4064   1.083       .  S
C4059      F4066   1.358       .  S
C4060      H4065   1.082       .  S
C4061      C4062   1.408       .  A
C4062      F4063   1.357       .  S
C4067      H4074   1.083       .  S
C4068      C4069   1.412       .  A
C4069      F4076   1.358       .  S
C4070      C4071   1.404       .  A
C4070      H4075   1.082       .  S
C4072      F4073   1.357       .  S
C4077      C4082   1.376       .  A
C4079      C4080   1.400       .  A
C4080      C4081   1.408       .  A
C4080      H4085   1.084       .  S
C4082      F4083   1.358       .  S
C4087      C4092   1.371       .  A
C4087      H4094   1.085       .  S
C4088      C4089   1.406   1_554  A
C4089      C4090   1.401       .  A
C4089      F4096   1.357       .  S
