geometry optimzed in LAMMPS
_audit_creation_date              2020-11-30 
_audit_creation_method            'lammps2cif' 
_symmetry_space_group_name_H-M    'P1' 
_symmetry_Int_Tables_number       1 
_symmetry_cell_setting            triclinic 
loop_ 
_symmetry_equiv_pos_as_xyz 
  x,y,z 
_cell_length_a                    33.27823782683108 
_cell_length_b                    33.27203553749328 
_cell_length_c                    33.369482465170805 
_cell_angle_alpha                 89.91975498648192 
_cell_angle_beta                  89.92126179783395 
_cell_angle_gamma                 90.04891834351398 
loop_ 
_atom_site_label 
_atom_site_type_symbol 
_atom_site_fract_x 
_atom_site_fract_y 
_atom_site_fract_z 
_atom_site_charge 
C1          C  0.85865726  0.52025937  0.80853367     0.02420
C2          C  0.83033464  0.54086901  0.83220358     0.02420
C3          C  0.80725420  0.51948616  0.86067230     0.02420
C4          C  0.80790681  0.47696938  0.86097597     0.02420
C5          C  0.83143198  0.45627638  0.83250213     0.02420
C6          C  0.85892264  0.47781683  0.80840814     0.02420
C7          C  0.74277663  0.24008791  0.79346122     0.03260
C8          C  0.76053428  0.27468277  0.80961593    -0.12890
C9          C  0.79439140  0.29187812  0.79128086     0.00760
C10         C  0.81110390  0.27363585  0.75717601    -0.11420
C11         C  0.79341730  0.23908465  0.74078689     0.03250
C12         C  0.75974098  0.22200590  0.75957476    -0.10840
H13         H  0.74568359  0.29041489  0.83391413     0.08850
H14         H  0.83546328  0.28841463  0.74133642     0.06380
H15         H  0.74441604  0.19693028  0.74554054     0.06220
C16         C  0.55649997  0.17426835  0.80643053     0.02420
C17         C  0.57804065  0.20176378  0.83039715     0.02420
C18         C  0.55756094  0.22549853  0.85877233     0.02420
C19         C  0.51519128  0.22640315  0.85911382     0.02420
C20         C  0.49352187  0.20351388  0.83081915     0.02420
C21         C  0.51392577  0.17532232  0.80638323     0.02420
C22         C  0.25578979  0.48123573  0.86339944     0.02420
C23         C  0.25463428  0.52370049  0.86371074     0.02420
C24         C  0.23019464  0.54420622  0.83601307     0.02420
C25         C  0.20181552  0.52264980  0.81323007     0.02420
C26         C  0.20245721  0.48021287  0.81316267     0.02420
C27         C  0.23171881  0.45953551  0.83589775     0.02420
C28         C  0.27877120  0.24740339  0.73781810     0.03260
C29         C  0.31341166  0.23031754  0.75451082    -0.12890
C30         C  0.33133003  0.24748744  0.78842303     0.00760
C31         C  0.31394975  0.28143672  0.80614453    -0.11420
C32         C  0.27939018  0.29895126  0.78952748     0.03250
C33         C  0.26159820  0.28152535  0.75562350    -0.10840
H34         H  0.32821043  0.20563679  0.73929105     0.08850
H35         H  0.32904392  0.29605221  0.83095199     0.06380
H36         H  0.23640546  0.29630723  0.74125903     0.06220
C37         C  0.55375741  0.82597335  0.80899119     0.02420
C38         C  0.57512540  0.79752598  0.83203997     0.02420
C39         C  0.55429598  0.77395719  0.86050787     0.02420
C40         C  0.51183658  0.77432102  0.86120669     0.02420
C41         C  0.49047195  0.79829516  0.83361806     0.02420
C42         C  0.51130731  0.82625075  0.80954413     0.02420
C43         C  0.27419057  0.70587861  0.79150330     0.03260
C44         C  0.25803865  0.72412315  0.75717449    -0.12890
C45         C  0.27687007  0.75773780  0.74005592     0.00760
C46         C  0.31141142  0.77370616  0.75804605    -0.11420
C47         C  0.32780915  0.75561721  0.79220778     0.03250
C48         C  0.30893690  0.72191259  0.80912223    -0.10840
H49         H  0.23292080  0.71013853  0.74190648     0.08850
H50         H  0.32740106  0.79814819  0.74353888     0.06380
H51         H  0.32309804  0.70625805  0.83387447     0.06220
C52         C  0.55570370  0.82931322  0.25657963     0.02420
C53         C  0.57695012  0.80133728  0.23282235     0.02420
C54         C  0.55574895  0.77789858  0.20464157     0.02420
C55         C  0.51340711  0.77702945  0.20518990     0.02420
C56         C  0.49232407  0.79973733  0.23391788     0.02420
C57         C  0.51314734  0.82875104  0.25682871     0.02420
C58         C  0.20777044  0.77183892  0.51410356     0.02420
C59         C  0.20726422  0.77268542  0.55652263     0.02420
C60         C  0.23478069  0.79762501  0.57718191     0.02420
C61         C  0.25824553  0.82579724  0.55563655     0.02420
C62         C  0.25820575  0.82523689  0.51337261     0.02420
C63         C  0.23557842  0.79597812  0.49297703     0.02420
C64         C  0.27859255  0.70315042  0.28017367     0.03260
C65         C  0.31263045  0.72035896  0.26210875    -0.12890
C66         C  0.33080489  0.75435917  0.27920851     0.00760
C67         C  0.31389908  0.77185159  0.31358109    -0.11420
C68         C  0.27965851  0.75502715  0.33132029     0.03250
C69         C  0.26203167  0.72088280  0.31442907    -0.10840
H70         H  0.32709180  0.70517648  0.23724606     0.08850
H71         H  0.32913777  0.79661994  0.32821994     0.06380
H72         H  0.23724391  0.70625242  0.32976946     0.06220
C73         C  0.26239443  0.52091081  0.21142029     0.02420
C74         C  0.23834509  0.53958071  0.24079623     0.02420
C75         C  0.21049363  0.51665694  0.26313151     0.02420
C76         C  0.21113805  0.47424088  0.26050112     0.02420
C77         C  0.23952550  0.45504109  0.23531437     0.02420
C78         C  0.26314403  0.47848138  0.20867633     0.02420
C79         C  0.55282765  0.22782671  0.21017453     0.02420
C80         C  0.57387523  0.20325630  0.23776468     0.02420
C81         C  0.55281777  0.17474747  0.26094268     0.02420
C82         C  0.51049384  0.17438499  0.26072934     0.02420
C83         C  0.48933660  0.20376067  0.23877950     0.02420
C84         C  0.51017140  0.22927955  0.21168774     0.02420
C85         C  0.32372392  0.23691175  0.27730880     0.03260
C86         C  0.30651958  0.26960333  0.25735278    -0.12890
C87         C  0.27217475  0.28856794  0.27274492     0.00760
C88         C  0.25372002  0.27299913  0.30742516    -0.11420
C89         C  0.27062176  0.23981781  0.32738215     0.03250
C90         C  0.30545995  0.22177345  0.31196678    -0.10840
H91         H  0.32232934  0.28297222  0.23219476     0.08850
H92         H  0.22907313  0.28919376  0.32121269     0.06380
H93         H  0.32037866  0.19834212  0.32896961     0.06220
C94         C  0.25978722  0.17408914  0.55516934     0.02420
C95         C  0.23636991  0.20208794  0.57653849     0.02420
C96         C  0.20739938  0.22523066  0.55612461     0.02420
C97         C  0.20639736  0.22499086  0.51383912     0.02420
C98         C  0.23429426  0.20168080  0.49229080     0.02420
C99         C  0.25894109  0.17404066  0.51281885     0.02420
C100        C  0.86328957  0.51989946  0.25589780     0.02420
C101        C  0.83519946  0.54173487  0.23312294     0.02420
C102        C  0.81187572  0.52168051  0.20410114     0.02420
C103        C  0.81144617  0.47921003  0.20300264     0.02420
C104        C  0.83479160  0.45710446  0.23065518     0.02420
C105        C  0.86337222  0.47745222  0.25447586     0.02420
C106        C  0.86117266  0.22450056  0.55611854     0.02420
C107        C  0.83407402  0.19924124  0.57705648     0.02420
C108        C  0.81076689  0.17105808  0.55546202     0.02420
C109        C  0.80976308  0.17236985  0.51317065     0.02420
C110        C  0.83283687  0.20128475  0.49248005     0.02420
C111        C  0.86072738  0.22508498  0.51371961     0.02420
C112        C  0.73733623  0.24366078  0.27902271     0.03260
C113        C  0.75450522  0.27781255  0.26104041    -0.12890
C114        C  0.78823413  0.29629529  0.27829376     0.00760
C115        C  0.80550827  0.27957804  0.31283194    -0.11420
C116        C  0.78877142  0.24534701  0.33083301     0.03250
C117        C  0.75497415  0.22718317  0.31355379    -0.10840
H118        H  0.73945612  0.29210729  0.23599787     0.08850
H119        H  0.83036051  0.29484013  0.32729996     0.06380
H120        H  0.74031919  0.20242982  0.32890143     0.06220
C121        C  0.80803775  0.82637411  0.51068208     0.02420
C122        C  0.80785841  0.82544774  0.55300999     0.02420
C123        C  0.83179418  0.79713643  0.57343380     0.02420
C124        C  0.85969656  0.77374010  0.55180670     0.02420
C125        C  0.85952506  0.77425459  0.50949289     0.02420
C126        C  0.83169562  0.79870262  0.48902279     0.02420
C127        C  0.79150844  0.70414484  0.27606253     0.03260
C128        C  0.75675328  0.72065784  0.25890665    -0.12890
C129        C  0.73910752  0.75533231  0.27513037     0.00760
C130        C  0.75674804  0.77374101  0.30851138    -0.11420
C131        C  0.79111487  0.75709414  0.32631063     0.03250
C132        C  0.80887823  0.72274351  0.30954173    -0.10840
H133        H  0.74193636  0.70501455  0.23456079     0.08850
H134        H  0.74165562  0.79876167  0.32287254     0.06380
H135        H  0.83382625  0.70838559  0.32473453     0.06220
C136        C  0.78933973  0.70391694  0.78931496     0.03260
C137        C  0.75490746  0.72208381  0.80552543    -0.12890
C138        C  0.73759520  0.75558408  0.78680187     0.00760
C139        C  0.75558740  0.77161667  0.75222499    -0.11420
C140        C  0.79012062  0.75386285  0.73591269     0.03250
C141        C  0.80715052  0.72021967  0.75476240    -0.10840
H142        H  0.73964450  0.70805273  0.83064961     0.08850
H143        H  0.74097870  0.79599094  0.73632011     0.06380
H144        H  0.83202427  0.70469240  0.74059892     0.06220
O145        O  0.99021569  0.59388067  0.68562564    -0.74300
O146        O  0.07241364  0.65030028  0.62788073    -0.74330
O147        O  0.07181167  0.59407743  0.68635069    -0.74380
O148        O  0.99079606  0.64995977  0.62710468    -0.74430
O149        O  0.99070098  0.69859695  0.67312127    -0.74360
O150        O  0.07085503  0.64222465  0.73282761    -0.74340
O151        O  0.07159231  0.69875857  0.67414350    -0.74320
O152        O  0.98993135  0.64221249  0.73202439    -0.74380
Ni153      Ni  0.03133153  0.62030686  0.65507165     1.25410
Ni154      Ni  0.03073652  0.67217303  0.70467044     1.25360
C155        C  0.97680157  0.60878187  0.71837051     0.87880
C156        C  0.08531188  0.68384393  0.64156985     0.87820
C157        C  0.08454382  0.60888341  0.71939643     0.87840
C158        C  0.97760634  0.68356976  0.64031938     0.88010
O159        O  0.67654259  0.95779914  0.73405106    -0.74300
O160        O  0.73438043  0.03851976  0.67602514    -0.74330
O161        O  0.67691573  0.03893357  0.73390127    -0.74380
O162        O  0.73416383  0.95754246  0.67622270    -0.74430
O163        O  0.68629243  0.95706271  0.62943403    -0.74360
O164        O  0.62959594  0.03935200  0.68650713    -0.74340
O165        O  0.68674163  0.03867374  0.62903494    -0.74320
O166        O  0.62916182  0.95771812  0.68677825    -0.74380
Ni167      Ni  0.70719061  0.99818126  0.70675393     1.25410
Ni168      Ni  0.65623997  0.99820833  0.65627236     1.25360
C169        C  0.64338495  0.94442838  0.71985904     0.87880
C170        C  0.72007035  0.05184416  0.64296232     0.87820
C171        C  0.64396017  0.05254766  0.71955627     0.87840
C172        C  0.71972439  0.94406563  0.64330489     0.88010
O173        O  0.67598973  0.70155772  0.07264156    -0.74300
O174        O  0.73407641  0.64299532  0.99300007    -0.74330
O175        O  0.67606720  0.70022148  0.99196191    -0.74380
O176        O  0.73398146  0.64438928  0.07378676    -0.74430
O177        O  0.68680156  0.59675286  0.07484808    -0.74360
O178        O  0.62917977  0.65213434  0.99246840    -0.74340
O179        O  0.68692928  0.59531222  0.99369148    -0.74320
O180        O  0.62911026  0.65355354  0.07380396    -0.74380
Ni181      Ni  0.70672170  0.67399570  0.03280549     1.25410
Ni182      Ni  0.65631128  0.62273919  0.03372794     1.25360
C183        C  0.64306007  0.68711273  0.08638426     0.87880
C184        C  0.72014939  0.60945555  0.98031716     0.87820
C185        C  0.64313313  0.68533235  0.97889982     0.87840
C186        C  0.71992308  0.61138024  0.08781875     0.88010
O187        O  0.43898404  0.95877356  0.68552392    -0.74300
O188        O  0.38263081  0.04102694  0.62796248    -0.74330
O189        O  0.43965604  0.04074860  0.68547937    -0.74380
O190        O  0.38175927  0.95928189  0.62807042    -0.74430
O191        O  0.33454259  0.95943238  0.67556772    -0.74360
O192        O  0.39157863  0.04139481  0.73206348    -0.74340
O193        O  0.33426832  0.04030845  0.67439977    -0.74320
O194        O  0.39199391  0.96023672  0.73327409    -0.74380
Ni195      Ni  0.41250348  0.99992706  0.65507188     1.25410
Ni196      Ni  0.36144829  0.00033853  0.70550381     1.25360
C197        C  0.42477486  0.94609057  0.71893384     0.87880
C198        C  0.34908295  0.05394085  0.64166757     0.87820
C199        C  0.42499639  0.05460114  0.71822759     0.87840
C200        C  0.34841426  0.94618641  0.64231048     0.88010
O201        O  0.99246316  0.35720434  0.73341162    -0.74300
O202        O  0.07484051  0.30110355  0.67687330    -0.74330
O203        O  0.07326436  0.35854286  0.73456562    -0.74380
O204        O  0.99381580  0.30000589  0.67577503    -0.74430
O205        O  0.99342508  0.34803383  0.62893212    -0.74360
O206        O  0.07402004  0.40582918  0.68699839    -0.74340
O207        O  0.07503610  0.34866442  0.62967703    -0.74320
O208        O  0.99240867  0.40502672  0.68647480    -0.74380
Ni209      Ni  0.03361377  0.32750354  0.70680936     1.25410
Ni210      Ni  0.03372304  0.37860283  0.65630885     1.25360
C211        C  0.97907118  0.39044076  0.71948205     0.87880
C212        C  0.08849875  0.31555736  0.64397847     0.87820
C213        C  0.08657943  0.39179018  0.72044238     0.87840
C214        C  0.98052849  0.31455132  0.64283544     0.88010
O215        O  0.37733174  0.59668368  0.99492276    -0.74300
O216        O  0.43709850  0.65261215  0.07554017    -0.74330
O217        O  0.37823289  0.59685393  0.07645876    -0.74380
O218        O  0.43628377  0.65246305  0.99412340    -0.74430
O219        O  0.39008150  0.70102280  0.99466241    -0.74360
O220        O  0.33190827  0.64539971  0.07679674    -0.74340
O221        O  0.39125855  0.70158340  0.07530554    -0.74320
O222        O  0.33077310  0.64499354  0.99582010    -0.74380
Ni223      Ni  0.40885939  0.62287658  0.03524294     1.25410
Ni224      Ni  0.35933156  0.67496405  0.03566634     1.25360
C225        C  0.34432874  0.61172547  0.98216778     0.87880
C226        C  0.42408677  0.68643734  0.08839796     0.87820
C227        C  0.34566787  0.61205458  0.09013842     0.87840
C228        C  0.42288089  0.68611961  0.98113514     0.88010
O229        O  0.67743503  0.29719516  0.99517581    -0.74300
O230        O  0.73326374  0.35745503  0.07550257    -0.74330
O231        O  0.67659124  0.29854735  0.07615313    -0.74380
O232        O  0.73427961  0.35592457  0.99476165    -0.74430
O233        O  0.68629375  0.40281961  0.99365777    -0.74360
O234        O  0.62790356  0.34467866  0.07400107    -0.74340
O235        O  0.68438259  0.40341543  0.07508301    -0.74320
O236        O  0.63005830  0.34464384  0.99276719    -0.74380
Ni237      Ni  0.70710508  0.32557980  0.03547005     1.25410
Ni238      Ni  0.65542404  0.37554657  0.03389414     1.25360
C239        C  0.64476109  0.31129507  0.98058855     0.87880
C240        C  0.71806341  0.39039384  0.08826685     0.87820
C241        C  0.64268895  0.31211780  0.08817029     0.87840
C242        C  0.71975745  0.38875250  0.98095064     0.88010
O243        O  0.62862010  0.96033364  0.38054913    -0.74300
O244        O  0.68574185  0.04154137  0.43856049    -0.74330
O245        O  0.62878288  0.04196671  0.38100449    -0.74380
O246        O  0.68553678  0.95982980  0.43803548    -0.74430
O247        O  0.73360564  0.96057752  0.39130462    -0.74360
O248        O  0.67617685  0.04177915  0.33358611    -0.74340
O249        O  0.73365026  0.04151339  0.39162504    -0.74320
O250        O  0.67629308  0.96081457  0.33335678    -0.74380
Ni251      Ni  0.65546270  0.00092495  0.41122348     1.25410
Ni252      Ni  0.70664154  0.00120685  0.36078482     1.25360
C253        C  0.64307709  0.94740839  0.34741911     0.87880
C254        C  0.71922350  0.05456069  0.42473014     0.87820
C255        C  0.64295566  0.05505497  0.34775382     0.87840
C256        C  0.71893455  0.94680195  0.42406931     0.88010
O257        O  0.99441119  0.63894443  0.33408265    -0.74300
O258        O  0.07507786  0.69636230  0.39185956    -0.74330
O259        O  0.07522627  0.63790413  0.33529152    -0.74380
O260        O  0.99409385  0.69742056  0.39087718    -0.74430
O261        O  0.99220033  0.65032463  0.43855469    -0.74360
O262        O  0.07423321  0.59122013  0.38326495    -0.74340
O263        O  0.07396398  0.64966510  0.43981912    -0.74320
O264        O  0.99260607  0.59225307  0.38220435    -0.74380
Ni265      Ni  0.03473975  0.66931501  0.36135305     1.25410
Ni266      Ni  0.03323912  0.61918713  0.41270936     1.25360
C267        C  0.98038694  0.60618396  0.34857955     0.87880
C268        C  0.08772587  0.68267907  0.42542004     0.87820
C269        C  0.08790472  0.60461981  0.34987393     0.87840
C270        C  0.97980665  0.68364408  0.42381295     0.88010
O271        O  0.07551807  0.35441139  0.33316250    -0.74300
O272        O  0.99346289  0.29882260  0.39106690    -0.74330
O273        O  0.99444199  0.35550390  0.33256026    -0.74380
O274        O  0.07430159  0.29799989  0.39189837    -0.74430
O275        O  0.07504790  0.34682267  0.43775181    -0.74360
O276        O  0.99400573  0.40334223  0.37931772    -0.74340
O277        O  0.99345501  0.34688547  0.43760928    -0.74320
O278        O  0.07558697  0.40288158  0.37943467    -0.74380
Ni279      Ni  0.03441441  0.32498225  0.36050204     1.25410
Ni280      Ni  0.03449951  0.37673194  0.41018563     1.25360
C281        C  0.08901116  0.38766159  0.34684962     0.87880
C282        C  0.98022972  0.31338733  0.42401401     0.87820
C283        C  0.98094413  0.38883102  0.34628124     0.87840
C284        C  0.08783828  0.31309986  0.42448358     0.88010
O285        O  0.38942799  0.95834986  0.33417379    -0.74300
O286        O  0.33155912  0.04006277  0.39043861    -0.74330
O287        O  0.39000823  0.03937771  0.33346185    -0.74380
O288        O  0.33098627  0.95898980  0.39110281    -0.74430
O289        O  0.37854939  0.95828195  0.43824269    -0.74360
O290        O  0.43634596  0.04020369  0.38175301    -0.74340
O291        O  0.37838919  0.03999827  0.43824317    -0.74320
O292        O  0.43654635  0.95868074  0.38161618    -0.74380
Ni293      Ni  0.35881099  0.99919011  0.36058660     1.25410
Ni294      Ni  0.40910577  0.99927427  0.41168603     1.25360
C295        C  0.42264520  0.94521408  0.34846917     0.87880
C296        C  0.34543251  0.05340419  0.42364303     0.87820
C297        C  0.42275899  0.05311025  0.34824921     0.87840
C298        C  0.34527107  0.94532338  0.42401024     0.88010
O299        O  0.44611014  0.35201850  0.99283685    -0.74300
O300        O  0.38624410  0.41158114  0.07121550    -0.74330
O301        O  0.44321263  0.35360167  0.07497151    -0.74380
O302        O  0.38874142  0.40993685  0.98984916    -0.74430
O303        O  0.34187956  0.36200033  0.98942250    -0.74360
O304        O  0.39476881  0.30741427  0.07444050    -0.74340
O305        O  0.33817117  0.36491020  0.06968360    -0.74320
O306        O  0.39902532  0.30423118  0.99371829    -0.74380
Ni307      Ni  0.41793057  0.38347626  0.03218486     1.25410
Ni308      Ni  0.36690424  0.33299024  0.03172438     1.25360
C309        C  0.43230936  0.31827892  0.98044115     0.87880
C310        C  0.35219362  0.39805328  0.08319517     0.87820
C311        C  0.42744884  0.32126674  0.08905652     0.87840
C312        C  0.35572707  0.39540029  0.97630367     0.88010
C313        C  0.82197079  0.79019771  0.44650217    -0.05330
C314        C  0.78844026  0.76598330  0.43874240    -0.32760
C315        C  0.77842775  0.75538423  0.39961564     0.36490
C316        C  0.80194073  0.76919988  0.36737473    -0.05690
C317        C  0.83547074  0.79365661  0.37486248    -0.32660
C318        C  0.84537277  0.80455185  0.41433483     0.36390
H319        H  0.77025751  0.75479949  0.46332801     0.16760
O320        O  0.74562896  0.73126336  0.39307046    -0.60160
H321        H  0.85373909  0.80438913  0.35017233     0.16780
O322        O  0.87795503  0.82878523  0.42123736    -0.60260
H323        H  0.86892053  0.85629611  0.41425227     0.43770
H324        H  0.75636876  0.70348005  0.39234270     0.43730
C325        C  0.82273694  0.78686998  0.61584813    -0.05330
C326        C  0.79578431  0.75529433  0.62308388    -0.32760
C327        C  0.78571725  0.74414721  0.66216766     0.36490
C328        C  0.80255147  0.76473221  0.69485011    -0.05690
C329        C  0.82982711  0.79616142  0.68787601    -0.32660
C330        C  0.83996017  0.80742022  0.64846370     0.36390
H331        H  0.78234319  0.73934668  0.59816493     0.16760
O332        O  0.75854901  0.71369844  0.66823214    -0.60160
H333        H  0.84299453  0.81208301  0.71293061     0.16780
O334        O  0.86715807  0.83775894  0.64203269    -0.60260
H335        H  0.85458985  0.86235935  0.65314635     0.43770
H336        H  0.77496295  0.68895185  0.67064572     0.43730
C337        C  0.78485933  0.85730301  0.48872723    -0.05330
C338        C  0.74378434  0.85179906  0.48145074    -0.32760
C339        C  0.72170130  0.88119869  0.46107400     0.36490
C340        C  0.74118472  0.91575897  0.44625989    -0.05690
C341        C  0.78252107  0.92071190  0.45275291    -0.32660
C342        C  0.80419652  0.89207577  0.47448307     0.36390
H343        H  0.72896428  0.82456668  0.49133619     0.16760
O344        O  0.68154854  0.87508738  0.45418965    -0.60160
H345        H  0.79783719  0.94724493  0.44165023     0.16780
O346        O  0.84436587  0.89807227  0.48141757    -0.60260
H347        H  0.84563938  0.91324125  0.50693576     0.43770
H348        H  0.66786177  0.88401712  0.47904365     0.43730
C349        C  0.88956367  0.75057922  0.48666793    -0.05330
C350        C  0.92554898  0.76914481  0.47505361    -0.32760
C351        C  0.95491577  0.74765440  0.45411257     0.36490
C352        C  0.94883406  0.70676828  0.44526827    -0.05690
C353        C  0.91294253  0.68803228  0.45719522    -0.32660
C354        C  0.88299883  0.70994256  0.47710526     0.36390
H355        H  0.93085493  0.80042040  0.48236760     0.16760
O356        O  0.98987624  0.76659840  0.44321292    -0.60160
H357        H  0.90783688  0.65661144  0.45035932     0.16780
O358        O  0.84768234  0.69139758  0.48752321    -0.60260
H359        H  0.83106024  0.69183535  0.46289181     0.43770
H360        H  0.00828828  0.76270121  0.46623487     0.43730
C361        C  0.89014574  0.75013225  0.57384070    -0.05330
C362        C  0.88579400  0.70848211  0.57815267    -0.32760
C363        C  0.91449116  0.68616136  0.59925437     0.36490
C364        C  0.94733747  0.70585147  0.61719870    -0.05690
C365        C  0.95136022  0.74761176  0.61308080    -0.32660
C366        C  0.92342172  0.76962044  0.59093419     0.36390
H367        H  0.85997502  0.69335556  0.56546610     0.16760
O368        O  0.90994707  0.64532021  0.60271617    -0.60160
H369        H  0.97671159  0.76307807  0.62638375     0.16780
O370        O  0.92873184  0.81023418  0.58623075    -0.60260
H371        H  0.94373840  0.81327321  0.56071372     0.43770
H372        H  0.88713383  0.64144046  0.62147033     0.43730
C373        C  0.78446135  0.85542472  0.57611646    -0.05330
C374        C  0.80401629  0.89007972  0.58978935    -0.32760
C375        C  0.78339985  0.91866638  0.61256556     0.36490
C376        C  0.74222865  0.91346551  0.62070364    -0.05690
C377        C  0.72250311  0.87891604  0.60674457    -0.32660
C378        C  0.74353202  0.84960966  0.58492272     0.36390
H379        H  0.83554460  0.89473092  0.58305972     0.16760
O380        O  0.80331726  0.95238446  0.62538184    -0.60160
H381        H  0.69095020  0.87432363  0.61341372     0.16780
O382        O  0.72454732  0.81477494  0.57359260    -0.60260
H383        H  0.70104034  0.82316214  0.55738478     0.43770
H384        H  0.81690035  0.94422842  0.65053715     0.43730
C385        C  0.82342775  0.21160151  0.45013144    -0.05330
C386        C  0.80390889  0.24817152  0.44282301    -0.32760
C387        C  0.79322819  0.25944504  0.40399319     0.36490
C388        C  0.80148968  0.23373051  0.37161773    -0.05690
C389        C  0.82107003  0.19704106  0.37866916    -0.32660
C390        C  0.83267207  0.18616640  0.41768535     0.36390
H391        H  0.79645709  0.26789967  0.46755560     0.16760
O392        O  0.77316993  0.29495625  0.39805116    -0.60160
H393        H  0.82770200  0.17711025  0.35388984     0.16780
O394        O  0.85288353  0.15082461  0.42379772    -0.60260
H395        H  0.88142621  0.15703525  0.41786034     0.43770
H396        H  0.79381108  0.31623894  0.40117403     0.43730
C397        C  0.74197189  0.08456192  0.44760627    -0.05330
C398        C  0.72493317  0.12220818  0.45578752    -0.32760
C399        C  0.74690853  0.15144828  0.47660154     0.36490
C400        C  0.78573889  0.14247892  0.49059912    -0.05690
C401        C  0.80227296  0.10445221  0.48329258    -0.32660
C402        C  0.78084508  0.07571953  0.46149980     0.36390
H403        H  0.69492148  0.12917837  0.44532437     0.16760
O404        O  0.73005167  0.18832473  0.48392979    -0.60160
H405        H  0.83210373  0.09730189  0.49414771     0.16780
O406        O  0.79795888  0.03895514  0.45417994    -0.60260
H407        H  0.78908264  0.02154214  0.47666265     0.43770
H408        H  0.73039122  0.20254304  0.45780074     0.43730
C409        C  0.89092905  0.24869677  0.49089124    -0.05330
C410        C  0.92056884  0.22788388  0.46953009    -0.32760
C411        C  0.94950073  0.24860440  0.44728203     0.36490
C412        C  0.94950930  0.29094843  0.44675216    -0.05690
C413        C  0.91981826  0.31182964  0.46817899    -0.32660
C414        C  0.89038080  0.29094882  0.49000744     0.36390
H415        H  0.92135509  0.19533800  0.47035405     0.16760
O416        O  0.97866620  0.22721367  0.42756936    -0.60160
H417        H  0.91902278  0.34438023  0.46745202     0.16780
O418        O  0.86023049  0.31173606  0.50891056    -0.60260
H419        H  0.87384167  0.33076182  0.52729946     0.43770
H420        H  0.96595969  0.21832271  0.40221203     0.43730
C421        C  0.74269895  0.08247199  0.62037921    -0.05330
C422        C  0.78481723  0.08079355  0.61979133    -0.32760
C423        C  0.80714493  0.10926862  0.59832881     0.36490
C424        C  0.78732818  0.14017697  0.57753636    -0.05690
C425        C  0.74525754  0.14207089  0.57827235    -0.32660
C426        C  0.72287770  0.11319999  0.59910210     0.36390
H427        H  0.80045939  0.05692554  0.63543975     0.16760
O428        O  0.84821614  0.10596366  0.59645623    -0.60160
H429        H  0.72978994  0.16620785  0.56293652     0.16780
O430        O  0.68178720  0.11626571  0.59991043    -0.60260
H431        H  0.67256379  0.10410575  0.57440572     0.43770
H432        H  0.85779580  0.10932084  0.62435291     0.43730
C433        C  0.89137100  0.24876349  0.57816672    -0.05330
C434        C  0.93179000  0.23678072  0.57695012    -0.32760
C435        C  0.96105505  0.25803872  0.59815997     0.36490
C436        C  0.95013994  0.29213156  0.62037048    -0.05690
C437        C  0.90991509  0.30451618  0.62139911    -0.32660
C438        C  0.88042457  0.28300125  0.60043665     0.36390
H439        H  0.94049002  0.21048886  0.55989535     0.16760
O440        O  0.00037408  0.24579728  0.59641450    -0.60160
H441        H  0.90134454  0.33063941  0.63877946     0.16780
O442        O  0.84095373  0.29481084  0.60261029    -0.60260
H443        H  0.83985425  0.32201773  0.59052980     0.43770
H444        H  0.00364431  0.22682988  0.61912045     0.43730
C445        C  0.82385054  0.41492383  0.24113284    -0.05330
C446        C  0.80617356  0.40835060  0.27872864    -0.32760
C447        C  0.79494615  0.36984678  0.29095386     0.36490
C448        C  0.80065752  0.33692631  0.26519873    -0.05690
C449        C  0.81784745  0.34324371  0.22726951    -0.32660
C450        C  0.82963182  0.38205949  0.21511453     0.36390
H451        H  0.80097107  0.43342145  0.29878543     0.16760
O452        O  0.77708679  0.36477610  0.32769671    -0.60160
H453        H  0.82252035  0.31802707  0.20730072     0.16780
O454        O  0.84792971  0.38742341  0.17863255    -0.60260
H455        H  0.82842301  0.37773899  0.15836733     0.43770
H456        H  0.79914816  0.36755759  0.34745535     0.43730
C457        C  0.82526872  0.58389938  0.24401921    -0.05330
C458        C  0.85011444  0.61615959  0.23277877    -0.32760
C459        C  0.83972768  0.65574045  0.24316661     0.36490
C460        C  0.80405914  0.66317346  0.26463238    -0.05690
C461        C  0.77971170  0.63083210  0.27626578    -0.32660
C462        C  0.79014821  0.59146114  0.26625117     0.36390
H463        H  0.87736469  0.61062157  0.21589770     0.16760
O464        O  0.86392166  0.68696174  0.23137163    -0.60160
H465        H  0.75258599  0.63617806  0.29346731     0.16780
O466        O  0.76656536  0.56023191  0.27937752    -0.60260
H467        H  0.74207686  0.56112279  0.26250902     0.43770
H468        H  0.88368480  0.69023061  0.25335012     0.43730
C469        C  0.78647065  0.45795602  0.17312776    -0.05330
C470        C  0.74985551  0.44076503  0.18474151    -0.32760
C471        C  0.72671269  0.41912456  0.15712835     0.36490
C472        C  0.74056185  0.41429967  0.11759170    -0.05690
C473        C  0.77679264  0.43228860  0.10578507    -0.32660
C474        C  0.79952300  0.45444100  0.13318420     0.36390
H475        H  0.73940198  0.44394512  0.21534373     0.16760
O476        O  0.69074206  0.40276188  0.16888278    -0.60160
H477        H  0.78740178  0.42917111  0.07522334     0.16780
O478        O  0.83460920  0.47224146  0.12083675    -0.60260
H479        H  0.85601111  0.45240320  0.12676815     0.43770
H480        H  0.69689988  0.38593798  0.19265047     0.43730
C481        C  0.89300972  0.45400173  0.27817920    -0.05330
C482        C  0.89189090  0.45495319  0.32016670    -0.32760
C483        C  0.92058478  0.43422839  0.34277560     0.36490
C484        C  0.95019707  0.41102322  0.32336051    -0.05690
C485        C  0.95064527  0.40934206  0.28134283    -0.32660
C486        C  0.92242855  0.43077114  0.25874348     0.36390
H487        H  0.86870604  0.47187491  0.33543816     0.16760
O488        O  0.91855410  0.43570161  0.38380362    -0.60160
H489        H  0.97349532  0.39206944  0.26590687     0.16780
O490        O  0.92479948  0.43040116  0.21767351    -0.60260
H491        H  0.91980963  0.40215286  0.20965893     0.43770
H492        H  0.93140924  0.46153476  0.39126874     0.43730
C493        C  0.74273843  0.58950130  0.11881289    -0.05330
C494        C  0.78481006  0.59250553  0.11940908    -0.32760
C495        C  0.80739607  0.57040929  0.14695374     0.36490
C496        C  0.78796195  0.54550756  0.17503651    -0.05690
C497        C  0.74589945  0.54321801  0.17520630    -0.32660
C498        C  0.72326179  0.56489027  0.14730637     0.36390
H499        H  0.80034894  0.61116915  0.09771745     0.16760
O500        O  0.84852909  0.57297810  0.14598373    -0.60160
H501        H  0.73060451  0.52456965  0.19705087     0.16780
O502        O  0.68215839  0.56201973  0.14838125    -0.60260
H503        H  0.67321446  0.58454464  0.16565299     0.43770
H504        H  0.85721903  0.55247988  0.12626905     0.43730
C505        C  0.89333833  0.54168919  0.28016302    -0.05330
C506        C  0.88380579  0.55448250  0.31904476    -0.32760
C507        C  0.91234516  0.57491966  0.34210351     0.36490
C508        C  0.95024212  0.58387194  0.32563850    -0.05690
C509        C  0.95941681  0.57172334  0.28649855    -0.32660
C510        C  0.93140007  0.55017248  0.26397287     0.36390
H511        H  0.85432019  0.54839949  0.33146555     0.16760
O512        O  0.90242759  0.58756475  0.37994193    -0.60160
H513        H  0.98857068  0.57850358  0.27362553     0.16780
O514        O  0.94101679  0.53826136  0.22581551    -0.60260
H515        H  0.95545017  0.51241694  0.22910599     0.43770
H516        H  0.90852769  0.56443681  0.39768658     0.43730
C517        C  0.11975072  0.29315245  0.62206341    -0.05330
C518        C  0.11965997  0.25099091  0.62358462    -0.32760
C519        C  0.14797258  0.22878446  0.60203417     0.36490
C520        C  0.17754568  0.24869224  0.57934275    -0.05690
C521        C  0.17856612  0.29079636  0.57881794    -0.32660
C522        C  0.14963218  0.31308286  0.59958584     0.36390
H523        H  0.09695043  0.23514550  0.64074766     0.16760
O524        O  0.14665550  0.18759235  0.60335096    -0.60160
H525        H  0.20190410  0.30639201  0.56235053     0.16780
O526        O  0.15108359  0.35425002  0.59807488    -0.60260
H527        H  0.17091651  0.36211709  0.61878178     0.43770
H528        H  0.12562206  0.17975467  0.58385785     0.43730
C529        C  0.28302426  0.14338659  0.57733495    -0.05330
C530        C  0.32264392  0.15116673  0.58919579    -0.32760
C531        C  0.34495544  0.12169713  0.60923827     0.36490
C532        C  0.32686274  0.08480694  0.61935626    -0.05690
C533        C  0.28683242  0.07754027  0.60851509    -0.32660
C534        C  0.26506361  0.10640582  0.58717386     0.36390
H535        H  0.33627524  0.18001309  0.58270878     0.16760
O536        O  0.38381350  0.12976362  0.62027730    -0.60160
H537        H  0.27267631  0.04917306  0.61607009     0.16780
O538        O  0.22640789  0.09812732  0.57556489    -0.60260
H539        H  0.20930332  0.10658213  0.59838073     0.43770
H540        H  0.40032892  0.12281911  0.59652430     0.43730
C541        C  0.28184101  0.14374177  0.48963983    -0.05330
C542        C  0.26069242  0.11261955  0.47080464    -0.32760
C543        C  0.28098734  0.08343242  0.44851481     0.36490
C544        C  0.32316794  0.08469318  0.44555285    -0.05690
C545        C  0.34429959  0.11614716  0.46398463    -0.32660
C546        C  0.32386018  0.14590958  0.48565907     0.36390
H547        H  0.22827752  0.11095412  0.47354988     0.16760
O548        O  0.25952073  0.05280770  0.43126354    -0.60160
H549        H  0.37668262  0.11800149  0.46100854     0.16780
O550        O  0.34462832  0.17801862  0.50114079    -0.60260
H551        H  0.36684512  0.16653083  0.51728271     0.43770
H552        H  0.24947190  0.06394928  0.40559020     0.43730
C553        C  0.11834047  0.29106236  0.44734050    -0.05330
C554        C  0.11150201  0.25071057  0.45732829    -0.32760
C555        C  0.13964608  0.22939194  0.47999936     0.36490
C556        C  0.17559325  0.24810384  0.49178545    -0.05690
C557        C  0.18289500  0.28817195  0.48105387    -0.33540
C558        C  0.15421000  0.30989028  0.45940834     0.36390
H559        H  0.08397786  0.23595062  0.44813407     0.16760
O560        O  0.13237656  0.18997931  0.48970824    -0.60160
H561        H  0.21090471  0.30249597  0.48936759     0.16780
O562        O  0.16177330  0.34917979  0.44945127    -0.60260
H563        H  0.17856863  0.34790503  0.42492141     0.43770
H564        H  0.11305514  0.19092057  0.51232025     0.43730
C565        C  0.24236493  0.21095376  0.44948924    -0.05330
C566        C  0.21729556  0.19674870  0.41876294    -0.32760
C567        C  0.22544354  0.20656357  0.37856788     0.36490
C568        C  0.25895096  0.23062654  0.36908307    -0.05690
C569        C  0.28354386  0.24504152  0.39993559    -0.32660
C570        C  0.27526537  0.23567622  0.43983222     0.36390
H571        H  0.19168882  0.17796301  0.42595990     0.16760
O572        O  0.20079595  0.19242137  0.34887269    -0.60160
H573        H  0.30940354  0.26361164  0.39293590     0.16780
O574        O  0.29972908  0.25060263  0.46934499    -0.60260
H575        H  0.28629874  0.27545097  0.47877727     0.43770
H576        H  0.21244184  0.16617330  0.34096605     0.43730
C577        C  0.44639072  0.21122246  0.24843526    -0.05330
C578        C  0.41560371  0.18801389  0.23127653    -0.32760
C579        C  0.37525599  0.19548117  0.24084658     0.36490
C580        C  0.36558883  0.22611935  0.26810035    -0.05690
C581        C  0.39637938  0.24851308  0.28601069    -0.32660
C582        C  0.43654160  0.24112789  0.27646828     0.36390
H583        H  0.42278475  0.16455991  0.21007397     0.16760
O584        O  0.34553206  0.17347979  0.22278419    -0.60160
H585        H  0.38911711  0.27211061  0.30717535     0.16780
O586        O  0.46607580  0.26356111  0.29437589    -0.60260
H587        H  0.47372396  0.24823163  0.31868553     0.43770
H588        H  0.34112487  0.15005385  0.24066700     0.43730
C589        C  0.61661374  0.21149813  0.24749464    -0.05330
C590        C  0.62454320  0.23514406  0.28128149    -0.32760
C591        C  0.66383926  0.24505531  0.29173142     0.36490
C592        C  0.69610803  0.23161543  0.26808195    -0.05690
C593        C  0.68845696  0.20779447  0.23420470    -0.32660
C594        C  0.64876607  0.19753743  0.22388526     0.36390
H595        H  0.59993966  0.24653778  0.29927532     0.16760
O596        O  0.67045969  0.26915840  0.32439807    -0.60160
H597        H  0.71316690  0.19725900  0.21586977     0.16780
O598        O  0.64163410  0.17375723  0.19113366    -0.60260
H599        H  0.64387697  0.19196846  0.16769064     0.43770
H600        H  0.67180993  0.25053530  0.34758600     0.43730
C601        C  0.48701177  0.25494091  0.18303885    -0.05330
C602        C  0.45925771  0.23619660  0.15769425    -0.32760
C603        C  0.43847821  0.25781746  0.12857949     0.36490
C604        C  0.44699987  0.29891120  0.12228184    -0.05690
C605        C  0.47417843  0.31819038  0.14817407    -0.32660
C606        C  0.49362132  0.29666507  0.17894577     0.36390
H607        H  0.45448731  0.20408976  0.15960374     0.16760
O608        O  0.41112652  0.23777279  0.10526194    -0.60160
H609        H  0.48005909  0.35005595  0.14486708     0.16780
O610        O  0.51796345  0.31656806  0.20559467    -0.60260
H611        H  0.53763861  0.33187706  0.18923619     0.43770
H612        H  0.38586117  0.23780178  0.12105024     0.43730
C613        C  0.48810677  0.14313518  0.28329005    -0.05330
C614        C  0.48107328  0.14786590  0.32440499    -0.32760
C615        C  0.46042311  0.11832662  0.34607906     0.36490
C616        C  0.44524225  0.08421898  0.32624838    -0.05690
C617        C  0.45166218  0.07986710  0.28493503    -0.32660
C618        C  0.47343757  0.10886856  0.26348334     0.36390
H619        H  0.49144960  0.17460708  0.33962225     0.16760
O620        O  0.45474318  0.12331352  0.38648699    -0.60160
H621        H  0.44052793  0.05350830  0.26945446     0.16780
O622        O  0.48151297  0.10309517  0.22351974    -0.60260
H623        H  0.45504174  0.10113749  0.21005774     0.43770
H624        H  0.42827527  0.13676260  0.38909574     0.43730
C625        C  0.57555730  0.14412943  0.28394095    -0.05330
C626        C  0.58996420  0.11008273  0.26386607    -0.32760
C627        C  0.61259506  0.08113478  0.28422654     0.36490
C628        C  0.62042061  0.08576584  0.32539307    -0.05690
C629        C  0.60606785  0.11987009  0.34546802    -0.32660
C630        C  0.58397010  0.14924976  0.32491700     0.36390
H631        H  0.58368615  0.10607401  0.23226391     0.16760
O632        O  0.62545999  0.04759907  0.26410253    -0.60160
H633        H  0.61256394  0.12402590  0.37700820     0.16780
O634        O  0.57219994  0.18364531  0.34437337    -0.60260
H635        H  0.55694909  0.17475243  0.36836221     0.43770
H636        H  0.65087736  0.05576419  0.25082651     0.43730
C637        C  0.57549316  0.24985357  0.17844905    -0.05330
C638        C  0.60303571  0.27998254  0.18899394    -0.32760
C639        C  0.62613980  0.29918226  0.15975159     0.36490
C640        C  0.62038542  0.29017226  0.11914465    -0.05690
C641        C  0.59282603  0.26037286  0.10822303    -0.32660
C642        C  0.57069376  0.23982595  0.13764108     0.36390
H643        H  0.60680027  0.28858901  0.22001728     0.16760
O644        O  0.65438167  0.32674567  0.17114599    -0.60160
H645        H  0.58873968  0.25278998  0.07691716     0.16780
O646        O  0.54571272  0.20890453  0.12659546    -0.60260
H647        H  0.52574248  0.22085750  0.10805981     0.43770
H648        H  0.67922007  0.31094914  0.17573024     0.43730
C649        C  0.26313750  0.32998951  0.25932255    -0.05330
C650        C  0.29329094  0.35909256  0.26366359    -0.32760
C651        C  0.28581884  0.39934190  0.25499009     0.36490
C652        C  0.24807985  0.41126907  0.24017410    -0.05690
C653        C  0.21826105  0.38187764  0.23399047    -0.32660
C654        C  0.22530287  0.34151927  0.24443997     0.36390
H655        H  0.32237384  0.35080786  0.27570058     0.16760
O656        O  0.31506808  0.42719127  0.26308593    -0.60160
H657        H  0.18910853  0.39048259  0.22245441     0.16780
O658        O  0.19530789  0.31364144  0.23982118    -0.60260
H659        H  0.17810837  0.31652677  0.26393901     0.43770
H660        H  0.30919888  0.43688562  0.29057020     0.43730
C661        C  0.12031021  0.40889514  0.32447265    -0.05330
C662        C  0.16001148  0.40826988  0.33831894    -0.32760
C663        C  0.19032331  0.42844049  0.31716858     0.36490
C664        C  0.18054498  0.45039072  0.28243521    -0.05690
C665        C  0.14079193  0.45059505  0.26849237    -0.32660
C666        C  0.11072968  0.42990064  0.28925516     0.36390
H667        H  0.16749313  0.39206724  0.36546164     0.16760
O668        O  0.22895286  0.42822782  0.33151957    -0.60160
H669        H  0.13310642  0.46717948  0.24160570     0.16780
O670        O  0.07203073  0.43059381  0.27515341    -0.60260
H671        H  0.05912082  0.45372270  0.28875219     0.43770
H672        H  0.23821366  0.40000890  0.32915531     0.43730
C673        C  0.32913914  0.42029817  0.11383497    -0.05330
C674        C  0.34960563  0.44371155  0.14218630    -0.32760
C675        C  0.32883991  0.46207234  0.17377121     0.36490
C676        C  0.28671976  0.45842081  0.17642203    -0.05690
C677        C  0.26617295  0.43585610  0.14750819    -0.32660
C678        C  0.28696673  0.41685388  0.11645121     0.36390
H679        H  0.38201495  0.44658515  0.14079923     0.16760
O680        O  0.34989973  0.48313705  0.20213551    -0.60160
H681        H  0.23375444  0.43310099  0.14901210     0.16780
O682        O  0.26568597  0.39514326  0.08873573    -0.60260
H683        H  0.26062817  0.41408524  0.06633454     0.43770
H684        H  0.36742407  0.46319812  0.21570808     0.43730
C685        C  0.28379637  0.54587327  0.18122317    -0.05330
C686        C  0.26738223  0.54915267  0.14268509    -0.32760
C687        C  0.28694106  0.57151719  0.11300124     0.36490
C688        C  0.32360107  0.59053866  0.12160010    -0.05690
C689        C  0.33986946  0.58781185  0.16021760    -0.32660
C690        C  0.31975153  0.56627647  0.19031969     0.36390
H691        H  0.23943864  0.53401672  0.13559645     0.16760
O692        O  0.27049361  0.57396161  0.07543631    -0.60160
H693        H  0.36812364  0.60249455  0.16703517     0.16780
O694        O  0.33616004  0.56377641  0.22795492    -0.60260
H695        H  0.33603115  0.59160164  0.23857343     0.43770
H696        H  0.27846605  0.54866444  0.06190373     0.43730
C697        C  0.17866307  0.53788418  0.28638877    -0.05330
C698        C  0.15086578  0.56148084  0.26537750    -0.32760
C699        C  0.12129737  0.58331678  0.28562558     0.36490
C700        C  0.11869357  0.58138531  0.32775810    -0.05690
C701        C  0.14611799  0.55722074  0.34881030    -0.32660
C702        C  0.17609641  0.53560502  0.32846479     0.36390
H703        H  0.15229449  0.56311681  0.23296476     0.16760
O704        O  0.09425069  0.60538996  0.26379523    -0.60160
H705        H  0.14489907  0.55575633  0.38122811     0.16780
O706        O  0.20402495  0.51414780  0.34986546    -0.60260
H707        H  0.18855727  0.49559884  0.36735287     0.43770
H708        H  0.10843372  0.63076279  0.25708257     0.43730
C709        C  0.26609088  0.66209562  0.26954872    -0.05330
C710        C  0.27458853  0.63110053  0.29666636    -0.32760
C711        C  0.26446368  0.59141149  0.28779890     0.36490
C712        C  0.24533698  0.58231225  0.25137213    -0.05690
C713        C  0.23584027  0.61344971  0.22452800    -0.32660
C714        C  0.24666395  0.65323801  0.23324289     0.36390
H715        H  0.29009101  0.63763642  0.32446156     0.16760
O716        O  0.27594389  0.56120510  0.31342672    -0.60160
H717        H  0.22096522  0.60669858  0.19648229     0.16780
O718        O  0.23780220  0.68323397  0.20648945    -0.60260
H719        H  0.26080785  0.68380335  0.18756636     0.43770
H720        H  0.26218110  0.56683908  0.33918250     0.43730
C721        C  0.24564932  0.78605543  0.45089588    -0.05330
C722        C  0.23374505  0.81093710  0.41903322    -0.32760
C723        C  0.24508214  0.80162702  0.37962072     0.36490
C724        C  0.26792346  0.76692445  0.37206395    -0.05690
C725        C  0.28000566  0.74242913  0.40395406    -0.32660
C726        C  0.26915517  0.75185456  0.44320550     0.36390
H727        H  0.21593302  0.83753034  0.42480900     0.16760
O728        O  0.23316036  0.82601551  0.34871354    -0.60160
H729        H  0.29820952  0.71601563  0.39834747     0.16780
O730        O  0.28313270  0.72866910  0.47427062    -0.60260
H731        H  0.27143466  0.70158506  0.47011535     0.43770
H732        H  0.25502566  0.84607709  0.34570297     0.43730
C733        C  0.11859267  0.70538468  0.44782274    -0.05330
C734        C  0.14527856  0.68490954  0.47322004    -0.32760
C735        C  0.17534303  0.70573097  0.49409000     0.36490
C736        C  0.17776147  0.74789383  0.49115108    -0.05690
C737        C  0.15103636  0.76830991  0.46586925    -0.32660
C738        C  0.12190590  0.74747352  0.44405931     0.36390
H739        H  0.14349883  0.65252297  0.47618026     0.16760
O740        O  0.20213032  0.68478286  0.51730443    -0.60160
H741        H  0.15263084  0.80074253  0.46324986     0.16780
O742        O  0.09653780  0.76865752  0.41951231    -0.60260
H743        H  0.07582952  0.78011525  0.43755524     0.43770
H744        H  0.21637920  0.66630269  0.49884004     0.43730
C745        C  0.28067871  0.85601174  0.49023671    -0.05330
C746        C  0.31848379  0.84697478  0.47400479    -0.32760
C747        C  0.34001251  0.87613218  0.45264450     0.36490
C748        C  0.32301246  0.91424591  0.44602895    -0.05690
C749        C  0.28465839  0.92286290  0.46111817    -0.32660
C750        C  0.26361508  0.89408092  0.48343681     0.36390
H751        H  0.33138632  0.81739515  0.47825084     0.16760
O752        O  0.37704700  0.86677040  0.43720987    -0.60160
H753        H  0.27137331  0.95218188  0.45618090     0.16780
O754        O  0.22652626  0.90342748  0.49877247    -0.60260
H755        H  0.20699707  0.89398825  0.47842914     0.43770
H756        H  0.39635559  0.87265408  0.45904456     0.43730
C757        C  0.17649783  0.74932935  0.57893652    -0.05330
C758        C  0.13643745  0.76246421  0.57803620    -0.32760
C759        C  0.10643716  0.74114819  0.59833149     0.36490
C760        C  0.11628379  0.70595972  0.61942412    -0.05690
C761        C  0.15609274  0.69235577  0.61993700    -0.32660
C762        C  0.18636937  0.71412654  0.60027081     0.36390
H763        H  0.12854927  0.78948087  0.56167642     0.16760
O764        O  0.06759988  0.75491981  0.59749267    -0.60160
H765        H  0.16376597  0.66510746  0.63602223     0.16780
O766        O  0.22510886  0.69999212  0.60045529    -0.60260
H767        H  0.23361289  0.70018352  0.62892967     0.43770
H768        H  0.05486547  0.74099403  0.57451443     0.43730
C769        C  0.32540009  0.91551539  0.62005100    -0.05330
C770        C  0.34574884  0.88601379  0.59788213    -0.32760
C771        C  0.32438913  0.85609930  0.57742438     0.36490
C772        C  0.28208645  0.85637989  0.57772523    -0.05690
C773        C  0.26175976  0.88586648  0.59975482    -0.32660
C774        C  0.28302091  0.91522412  0.62087611     0.36390
H775        H  0.37829992  0.88551615  0.59725664     0.16760
O776        O  0.34500319  0.82649185  0.55759137    -0.60160
H777        H  0.22920038  0.88620527  0.60033473     0.16780
O778        O  0.26202501  0.94388016  0.64169525    -0.60260
H779        H  0.25895809  0.96667389  0.62276623     0.43770
H780        H  0.35607167  0.80883234  0.57882260     0.43730
C781        C  0.37150066  0.76654381  0.26651244    -0.05330
C782        C  0.40358261  0.75981693  0.29280232    -0.32760
C783        C  0.44274792  0.77055982  0.28210776     0.36490
C784        C  0.45027714  0.78882703  0.24476704    -0.05690
C785        C  0.41815528  0.79526316  0.21822012    -0.32660
C786        C  0.37892766  0.78398009  0.22882382     0.36390
H787        H  0.39827684  0.74557555  0.32156584     0.16760
O788        O  0.47393443  0.76144433  0.30745485    -0.60160
H789        H  0.42340027  0.80914306  0.18938660     0.16780
O790        O  0.34811067  0.79010395  0.20229257    -0.60260
H791        H  0.33726747  0.81703155  0.20896893     0.43770
H792        H  0.46907682  0.77725983  0.33215076     0.43730
C793        C  0.61949193  0.79091034  0.24204090    -0.05330
C794        C  0.62689644  0.75309179  0.25912121    -0.32760
C795        C  0.66576870  0.74122434  0.26915958     0.36490
C796        C  0.69828922  0.76742996  0.26254690    -0.05690
C797        C  0.69112500  0.80558916  0.24599631    -0.32660
C798        C  0.65198081  0.81722428  0.23505833     0.36390
H799        H  0.60214967  0.73273933  0.26509289     0.16760
O800        O  0.67161301  0.70415447  0.28624438    -0.60160
H801        H  0.71592149  0.82618145  0.24126762     0.16780
O802        O  0.64560893  0.85437000  0.21835662    -0.60260
H803        H  0.66076396  0.85444855  0.19274698     0.43770
H804        H  0.67151631  0.70898623  0.31556395     0.43730
C805        C  0.49115412  0.75322529  0.17504552    -0.05330
C806        C  0.48079647  0.71313921  0.18292173    -0.32760
C807        C  0.45972634  0.69062104  0.15439628     0.36490
C808        C  0.44751345  0.70877939  0.11828938    -0.05690
C809        C  0.45776872  0.74893173  0.11059321    -0.32660
C810        C  0.48004954  0.77096636  0.13845698     0.36390
H811        H  0.48920349  0.69937236  0.21112671     0.16760
O812        O  0.44972239  0.65149382  0.16271060    -0.60160
H813        H  0.44899486  0.76301176  0.08264674     0.16780
O814        O  0.49136217  0.80965650  0.12962661    -0.60260
H815        H  0.46720950  0.82633877  0.13460718     0.43770
H816        H  0.47350784  0.63550624  0.15459473     0.43730
C817        C  0.48989951  0.85849104  0.28066363    -0.05330
C818        C  0.49354070  0.85969222  0.32251260    -0.32760
C819        C  0.47165443  0.88752749  0.34509774     0.36490
C820        C  0.44552376  0.91471152  0.32580972    -0.05690
C821        C  0.44176799  0.91324695  0.28394502    -0.32660
C822        C  0.46376483  0.88549569  0.26137651     0.36390
H823        H  0.51318639  0.83874286  0.33774601     0.16760
O824        O  0.47580142  0.88762734  0.38597885    -0.60160
H825        H  0.42235334  0.93428034  0.26848033     0.16780
O826        O  0.46129508  0.88625205  0.22030030    -0.60260
H827        H  0.43287833  0.88008843  0.21381028     0.43770
H828        H  0.45529380  0.86840527  0.39595764     0.43730
C829        C  0.62072576  0.70980097  0.11690166    -0.05330
C830        C  0.61825979  0.75176242  0.11367503    -0.32760
C831        C  0.59690308  0.77409504  0.14205851     0.36490
C832        C  0.57820735  0.75444898  0.17436406    -0.05690
C833        C  0.58088288  0.71256923  0.17786254    -0.32660
C834        C  0.60165249  0.69013768  0.14913718     0.36390
H835        H  0.63227682  0.76719243  0.08867120     0.16760
O836        O  0.59291545  0.81486975  0.13727439    -0.60160
H837        H  0.56692220  0.69732766  0.20298663     0.16780
O838        O  0.60460427  0.64927449  0.15371205    -0.60260
H839        H  0.57904780  0.63832256  0.14301418     0.43770
H840        H  0.62032536  0.82607391  0.14069231     0.43730
C841        C  0.57786981  0.85965968  0.28033465    -0.05330
C842        C  0.59619023  0.84879189  0.31659544    -0.32760
C843        C  0.61747535  0.87732612  0.33890810     0.36490
C844        C  0.62083331  0.91700628  0.32473382    -0.05690
C845        C  0.60284737  0.92777647  0.28836857    -0.32660
C846        C  0.58095343  0.89947770  0.26641565     0.36390
H847        H  0.59391969  0.81818261  0.32749159     0.16760
O848        O  0.63520628  0.86615370  0.37427247    -0.60160
H849        H  0.60546535  0.95827624  0.27721053     0.16780
O850        O  0.56382811  0.91047012  0.23067160    -0.60260
H851        H  0.53967146  0.92626867  0.23800716     0.43770
H852        H  0.66274228  0.85751812  0.36683535     0.43730
C853        C  0.24453853  0.78980493  0.61988354    -0.05330
C854        C  0.28181244  0.77214860  0.62823510    -0.32760
C855        C  0.29262323  0.76245513  0.66734499     0.36490
C856        C  0.26598083  0.77034819  0.69910738    -0.05690
C857        C  0.22870226  0.78835905  0.69108669    -0.32660
C858        C  0.21793570  0.79842550  0.65157487     0.36390
H859        H  0.30223981  0.76488456  0.60401094     0.16760
O860        O  0.32901442  0.74436200  0.67418061    -0.60160
H861        H  0.20807516  0.79463376  0.71542406     0.16780
O862        O  0.18214814  0.81749823  0.64422488    -0.60260
H863        H  0.16090080  0.79840286  0.65282070     0.43770
H864        H  0.32334805  0.71508982  0.67406185     0.43730
C865        C  0.44800501  0.78835503  0.82443190    -0.05330
C866        C  0.44084214  0.75733935  0.79699235    -0.32760
C867        C  0.40169518  0.74637287  0.78685741     0.36490
C868        C  0.36893011  0.76639495  0.80436690    -0.05690
C869        C  0.37583338  0.79754476  0.83176377    -0.32660
C870        C  0.41528562  0.80843573  0.84217368     0.36390
H871        H  0.46585835  0.74171615  0.78321461     0.16760
O872        O  0.39562679  0.71601484  0.75974090    -0.60160
H873        H  0.35068107  0.81338916  0.84498399     0.16780
O874        O  0.42164553  0.83906029  0.86889198    -0.60260
H875        H  0.40973095  0.82985573  0.89457164     0.43770
H876        H  0.39479625  0.72944235  0.73320982     0.43730
C877        C  0.61769969  0.78851965  0.82153959    -0.05330
C878        C  0.62522980  0.77059162  0.78427096    -0.32760
C879        C  0.66423827  0.76066105  0.77260847     0.36490
C880        C  0.69669964  0.76834865  0.79844708    -0.05690
C881        C  0.68941766  0.78611365  0.83589522    -0.32660
C882        C  0.65018897  0.79686075  0.84727507     0.36390
H883        H  0.60051479  0.76388680  0.76423706     0.16760
O884        O  0.67030185  0.74267951  0.73612129    -0.60160
H885        H  0.71418411  0.79190248  0.85612228     0.16780
O886        O  0.64388747  0.81512060  0.88351857    -0.60260
H887        H  0.65267988  0.84335276  0.87975078     0.43770
H888        H  0.67043701  0.71340031  0.74173223     0.43730
C889        C  0.44578991  0.70842852  0.95047742    -0.05330
C890        C  0.46569322  0.68763506  0.91967274    -0.32760
C891        C  0.48696644  0.70864279  0.89001981     0.36490
C892        C  0.48936924  0.75080905  0.89166178    -0.05690
C893        C  0.47018748  0.77144072  0.92280072    -0.32660
C894        C  0.44830109  0.75066608  0.95192159     0.36390
H895        H  0.46403532  0.65514877  0.91814269     0.16760
O896        O  0.50522605  0.68783255  0.85960560    -0.60160
H897        H  0.47257657  0.80385386  0.92468587     0.16780
O898        O  0.43014454  0.77189930  0.98213307    -0.60260
H899        H  0.45039639  0.77323026  0.00386862     0.43770
H900        H  0.48465225  0.68576713  0.83824228     0.43730
C901        C  0.48857643  0.85659609  0.78613476    -0.05330
C902        C  0.48184378  0.85101468  0.74504109    -0.32760
C903        C  0.46157932  0.88027107  0.72259566     0.36490
C904        C  0.44659451  0.91496903  0.74159517    -0.05690
C905        C  0.45233575  0.91987828  0.78292419    -0.32660
C906        C  0.47388167  0.89136006  0.80501286     0.36390
H907        H  0.49249730  0.82402617  0.73037392     0.16760
O908        O  0.45608349  0.87443866  0.68229244    -0.60160
H909        H  0.44098313  0.94642471  0.79792095     0.16780
O910        O  0.48031240  0.89750054  0.84512841    -0.60260
H911        H  0.50216419  0.91772825  0.84653870     0.43770
H912        H  0.42947645  0.86119009  0.67989949     0.43730
C913        C  0.57642277  0.85650351  0.78583340    -0.05330
C914        C  0.57928196  0.85357235  0.74405033    -0.32760
C915        C  0.60108790  0.88205449  0.72214867     0.36490
C916        C  0.62095819  0.91355613  0.74220616    -0.05690
C917        C  0.61902766  0.91572185  0.78413110    -0.32660
C918        C  0.59654064  0.88768950  0.80590865     0.36390
H919        H  0.56499714  0.82888370  0.72848119     0.16760
O920        O  0.60344699  0.87840180  0.68127419    -0.60160
H921        H  0.63425048  0.93971296  0.79996965     0.16780
O922        O  0.59464280  0.89063661  0.84686447    -0.60260
H923        H  0.57498778  0.91233153  0.85229090     0.43770
H924        H  0.62838659  0.86289749  0.67623877     0.43730
C925        C  0.57680954  0.75057475  0.89082855    -0.05330
C926        C  0.59528351  0.71416188  0.88044231    -0.32760
C927        C  0.61696231  0.69237986  0.90909519     0.36490
C928        C  0.62050648  0.70729523  0.94834290    -0.05690
C929        C  0.60221704  0.74371925  0.95864168    -0.32660
C930        C  0.58018348  0.76522606  0.93022323     0.36390
H931        H  0.59285668  0.70275616  0.85014695     0.16760
O932        O  0.63478646  0.65678179  0.89850648    -0.60160
H933        H  0.60473418  0.75526719  0.98889392     0.16780
O934        O  0.56185185  0.80046866  0.94116443    -0.60260
H935        H  0.58192460  0.82184031  0.93575566     0.43770
H936        H  0.66232253  0.66415625  0.88974449     0.43730
C937        C  0.26632209  0.23524146  0.69724804    -0.05330
C938        C  0.28072185  0.25749182  0.66459994    -0.32760
C939        C  0.27129361  0.24623086  0.62547983     0.36490
C940        C  0.24683517  0.21247661  0.61848061    -0.05690
C941        C  0.23247256  0.18993343  0.65109856    -0.32660
C942        C  0.24204464  0.20127732  0.69047914     0.36390
H943        H  0.29973979  0.28347669  0.66954223     0.16760
O944        O  0.28590067  0.26857810  0.59408292    -0.60160
H945        H  0.21371720  0.16385176  0.64604261     0.16780
O946        O  0.22779529  0.17902146  0.72205532    -0.60260
H947        H  0.20210035  0.19198865  0.72973075     0.43770
H948        H  0.31104910  0.25493190  0.58580953     0.43730
C949        C  0.24269061  0.41727771  0.82582824    -0.05330
C950        C  0.28051959  0.41073011  0.80844401    -0.32760
C951        C  0.29263999  0.37229695  0.79710243     0.36490
C952        C  0.26671881  0.33936737  0.80272399    -0.05690
C953        C  0.22862287  0.34562225  0.81965196    -0.32660
C954        C  0.21671048  0.38427584  0.83195638     0.36390
H955        H  0.30066868  0.43581734  0.80322479     0.16760
O956        O  0.32973325  0.36727618  0.77983084    -0.60160
H957        H  0.20834657  0.32045523  0.82376912     0.16780
O958        O  0.17967094  0.38970260  0.84926410    -0.60260
H959        H  0.17844649  0.37104688  0.87242756     0.43770
H960        H  0.32490220  0.36843524  0.75053419     0.43730
C961        C  0.23963367  0.58638949  0.82498337    -0.05330
C962        C  0.22812499  0.61880548  0.84930004    -0.32760
C963        C  0.23839057  0.65829572  0.83839439     0.36490
C964        C  0.26061164  0.66534035  0.80315207    -0.05690
C965        C  0.27195309  0.63288763  0.77900273    -0.32660
C966        C  0.26186880  0.59367663  0.78981698     0.36390
H967        H  0.21151777  0.61341936  0.87671577     0.16760
O968        O  0.22693524  0.68969324  0.86237080    -0.60160
H969        H  0.28943578  0.63799688  0.75203622     0.16780
O970        O  0.27431413  0.56242334  0.76606433    -0.60260
H971        H  0.29986925  0.55304745  0.77811029     0.43770
H972        H  0.20097159  0.69900421  0.85117698     0.43730
C973        C  0.17267022  0.45775045  0.78899709    -0.05330
C974        C  0.18286400  0.44382154  0.75067755    -0.32760
C975        C  0.15475567  0.42264354  0.72772656     0.36490
C976        C  0.11635741  0.41457749  0.74348970    -0.05690
C977        C  0.10625786  0.42837466  0.78183480    -0.32660
C978        C  0.13388906  0.45062625  0.80425816     0.36390
H979        H  0.21259273  0.44948310  0.73864644     0.16760
O980        O  0.16520138  0.40942615  0.69023872    -0.60160
H981        H  0.07670076  0.42234665  0.79415147     0.16780
O982        O  0.12346509  0.46392289  0.84175397    -0.60260
H983        H  0.10555733  0.48726757  0.83714664     0.43770
H984        H  0.17654104  0.38219169  0.69445780     0.43730
C985        C  0.28207741  0.45917379  0.89189927    -0.05330
C986        C  0.32404793  0.46364937  0.89032855    -0.32760
C987        C  0.34880029  0.44352423  0.91780774     0.36490
C988        C  0.33155586  0.41772303  0.94660718    -0.05690
C989        C  0.28961224  0.41329276  0.94783162    -0.32660
C990        C  0.26492663  0.43381027  0.92090033     0.36390
H991        H  0.33757036  0.48278256  0.86773874     0.16760
O992        O  0.38967280  0.44820925  0.91538545    -0.60160
H993        H  0.27567340  0.39438285  0.97038476     0.16780
O994        O  0.22390364  0.43073826  0.92434956    -0.60260
H995        H  0.21769511  0.40163479  0.92289804     0.43770
H996        H  0.39546433  0.47371784  0.92960652     0.43730
C997        C  0.17185826  0.54492881  0.78898966    -0.05330
C998        C  0.17464178  0.54506009  0.74707585    -0.32760
C999        C  0.14622389  0.56556529  0.72392613     0.36490
C1000       C  0.11500498  0.58699173  0.74281504    -0.05690
C1001       C  0.11264892  0.58725012  0.78480144    -0.32660
C1002       C  0.14075653  0.56629157  0.80789209     0.36390
H1003       H  0.19896136  0.52927144  0.73233609     0.16760
O1004       O  0.15015365  0.56587063  0.68300746    -0.60160
H1005       H  0.08850778  0.60314477  0.79975586     0.16780
O1006       O  0.13681133  0.56540018  0.84883589    -0.60260
H1007       H  0.14223243  0.59323477  0.85794238     0.43770
H1008       H  0.13845665  0.54001365  0.67391889     0.43730
C1009       C  0.27778219  0.54671796  0.89392378    -0.05330
C1010       C  0.31356324  0.56632516  0.88315266    -0.32760
C1011       C  0.33540127  0.58801007  0.91173148     0.36490
C1012       C  0.32141478  0.59018746  0.95145114    -0.05690
C1013       C  0.28531839  0.57130118  0.96199522    -0.32660
C1014       C  0.26371536  0.54923075  0.93360487     0.36390
H1015       H  0.32453966  0.56466059  0.85263124     0.16760
O1016       O  0.37019849  0.60715688  0.90061140    -0.60160
H1017       H  0.27412462  0.57327061  0.99238708     0.16780
O1018       O  0.22843651  0.53084253  0.94454694    -0.60260
H1019       H  0.23648442  0.50759951  0.96131842     0.43770
H1020       H  0.36183429  0.63465804  0.89276213     0.43730
C1021       C  0.37234238  0.23544379  0.79991078    -0.05330
C1022       C  0.37918323  0.21203015  0.83422050    -0.32760
C1023       C  0.41853471  0.20122707  0.84517568     0.36490
C1024       C  0.45120529  0.21401383  0.82148242    -0.05690
C1025       C  0.44410598  0.23752651  0.78734933    -0.32660
C1026       C  0.40508399  0.24817951  0.77646407     0.36390
H1027       H  0.35404320  0.20199392  0.85231493     0.16760
O1028       O  0.42477061  0.17702214  0.87790792    -0.60160
H1029       H  0.46908964  0.24769842  0.76907862     0.16780
O1030       O  0.39919073  0.27197844  0.74338296    -0.60260
H1031       H  0.39708009  0.25305371  0.72054244     0.43770
H1032       H  0.41378826  0.19195505  0.90116967     0.43730
C1033       C  0.49030290  0.14565764  0.78266735    -0.05330
C1034       C  0.46562413  0.11834574  0.80319468    -0.32760
C1035       C  0.44391816  0.08898650  0.78258382     0.36490
C1036       C  0.44694206  0.08615818  0.74053408    -0.05690
C1037       C  0.47111501  0.11395159  0.71982380    -0.32660
C1038       C  0.49244290  0.14388828  0.74055476     0.36390
H1039       H  0.46381479  0.11932186  0.83558695     0.16760
O1040       O  0.42040700  0.06275260  0.80402102    -0.60160
H1041       H  0.47295707  0.11290726  0.68741965     0.16780
O1042       O  0.51364826  0.17247296  0.71959672    -0.60260
H1043       H  0.53190747  0.15758319  0.70140314     0.43770
H1044       H  0.43808719  0.03953348  0.81004596     0.43730
C1045       C  0.49376026  0.25062554  0.88977067    -0.05330
C1046       C  0.48370098  0.23260118  0.92642953    -0.32760
C1047       C  0.46355980  0.25437428  0.95614133     0.36490
C1048       C  0.45465135  0.29524217  0.95001595    -0.05690
C1049       C  0.46549438  0.31358683  0.91367177    -0.32660
C1050       C  0.48465902  0.29139167  0.88334380     0.36390
H1051       H  0.49109137  0.20133571  0.93176040     0.16760
O1052       O  0.45370856  0.23581025  0.99154790    -0.60160
H1053       H  0.45807187  0.34485278  0.90838151     0.16780
O1054       O  0.49295400  0.30895925  0.84697829    -0.60260
H1055       H  0.50763326  0.33419043  0.85294162     0.43770
H1056       H  0.42786399  0.22193288  0.98626760     0.43730
C1057       C  0.57872330  0.14290507  0.78368187    -0.05330
C1058       C  0.60013307  0.15303741  0.74880147    -0.32760
C1059       C  0.62166560  0.12374059  0.72770287     0.36490
C1060       C  0.62207482  0.08382907  0.74154455    -0.05690
C1061       C  0.60133461  0.07374546  0.77669891    -0.32660
C1062       C  0.57947016  0.10295962  0.79763209     0.36390
H1063       H  0.59980649  0.18363942  0.73773131     0.16760
O1064       O  0.64230595  0.13434482  0.69367944    -0.60160
H1065       H  0.60181498  0.04309292  0.78772397     0.16780
O1066       O  0.55989334  0.09263483  0.83237813    -0.60260
H1067       H  0.53724982  0.07518424  0.82399094     0.43770
H1068       H  0.66965671  0.14162114  0.70297544     0.43730
C1069       C  0.58064484  0.24794425  0.88939920    -0.05330
C1070       C  0.58854217  0.22932743  0.92626571    -0.32760
C1071       C  0.61026056  0.24941930  0.95596531     0.36490
C1072       C  0.62356797  0.28893437  0.94919072    -0.05690
C1073       C  0.61575028  0.30758979  0.91232499    -0.32660
C1074       C  0.59456359  0.28721510  0.88222530     0.36390
H1075       H  0.57776741  0.19910351  0.93194196     0.16760
O1076       O  0.61677237  0.23094910  0.99214380    -0.60160
H1077       H  0.62636208  0.33788839  0.90679615     0.16780
O1078       O  0.58864340  0.30500873  0.84551761    -0.60260
H1079       H  0.57805270  0.33232720  0.85087252     0.43770
H1080       H  0.64168532  0.21504412  0.98841975     0.43730
C1081       C  0.80412948  0.22645860  0.69970385    -0.05330
C1082       C  0.84263620  0.21176716  0.69075738    -0.32760
C1083       C  0.85286332  0.20102659  0.65125781     0.36490
C1084       C  0.82470094  0.20646282  0.62015968    -0.05690
C1085       C  0.78632716  0.22119119  0.62944597    -0.32660
C1086       C  0.77592964  0.23104520  0.66865972     0.36390
H1087       H  0.86465956  0.20848478  0.71441123     0.16760
O1088       O  0.89054982  0.18643909  0.64308343    -0.60160
H1089       H  0.76453969  0.22603465  0.60581979     0.16780
O1090       O  0.73836282  0.24626494  0.67620723    -0.60260
H1091       H  0.74166851  0.27589011  0.67561339     0.43770
H1092       H  0.89320526  0.16136341  0.65893311     0.43730
C1093       C  0.70113244  0.22985929  0.80436228    -0.05330
C1094       C  0.69248108  0.19953186  0.83236975    -0.32760
C1095       C  0.65237956  0.18970879  0.84143725     0.36490
C1096       C  0.62094536  0.21008645  0.82195790    -0.05690
C1097       C  0.62985404  0.24006710  0.79383179    -0.32660
C1098       C  0.66953695  0.25011992  0.78510436     0.36390
H1099       H  0.71671061  0.18356327  0.84703951     0.16760
O1100       O  0.64412385  0.15986547  0.86860230    -0.60160
H1101       H  0.60576272  0.25572987  0.77856276     0.16780
O1102       O  0.67730806  0.27920883  0.75694483    -0.60260
H1103       H  0.67903639  0.30470632  0.77221122     0.43770
H1104       H  0.64818465  0.17231196  0.89526856     0.43730
C1105       C  0.82325388  0.41337102  0.82318836    -0.05330
C1106       C  0.80264796  0.40480125  0.78761054    -0.32760
C1107       C  0.79416850  0.36523590  0.77674970     0.36490
C1108       C  0.80591970  0.33336646  0.80182350    -0.05690
C1109       C  0.82662829  0.34167742  0.83748426    -0.32660
C1110       C  0.83559257  0.38157623  0.84819705     0.36390
H1111       H  0.79293647  0.42907860  0.76822479     0.16760
O1112       O  0.77296887  0.35798154  0.74226903    -0.60160
H1113       H  0.83585950  0.31726423  0.85690125     0.16780
O1114       O  0.85740729  0.38923700  0.88220219    -0.60260
H1115       H  0.84063074  0.37948257  0.90480100     0.43770
H1116       H  0.79343527  0.35704334  0.72065823     0.43730
C1117       C  0.82028723  0.58343846  0.82312338    -0.05330
C1118       C  0.84656109  0.61504628  0.83276253    -0.32760
C1119       C  0.83703570  0.65477153  0.82200430     0.36490
C1120       C  0.80049654  0.66305857  0.80245073    -0.05690
C1121       C  0.77431202  0.63143649  0.79322936    -0.32660
C1122       C  0.78425467  0.59190598  0.80282324     0.36390
H1123       H  0.87453891  0.60879359  0.84809334     0.16760
O1124       O  0.86314583  0.68526978  0.83120313    -0.60160
H1125       H  0.74646563  0.63739502  0.77749352     0.16780
O1126       O  0.75889021  0.56147616  0.79148692    -0.60260
H1127       H  0.76974556  0.55155913  0.76563973     0.43770
H1128       H  0.88214944  0.68651432  0.80831309     0.43730
C1129       C  0.94802956  0.41236074  0.74208600    -0.05330
C1130       C  0.91824643  0.43392823  0.72149343    -0.32760
C1131       C  0.88858745  0.45513793  0.74256202     0.36490
C1132       C  0.88917646  0.45540649  0.78469722    -0.05690
C1133       C  0.91864463  0.43355172  0.80521167    -0.32660
C1134       C  0.94774865  0.41187424  0.78429617     0.36390
H1135       H  0.91752672  0.43372433  0.68903055     0.16760
O1136       O  0.85798745  0.47371675  0.72211349    -0.60160
H1137       H  0.91918694  0.43357562  0.83768408     0.16780
O1138       O  0.97681049  0.39173376  0.80540000    -0.60260
H1139       H  0.96413155  0.36599898  0.81356696     0.43770
H1140       H  0.87106921  0.49232781  0.70285233     0.43730
C1141       C  0.78515184  0.45418350  0.89175887    -0.05330
C1142       C  0.74857065  0.43574431  0.88190200    -0.32760
C1143       C  0.72677779  0.41454270  0.91095987     0.36490
C1144       C  0.74207099  0.41085074  0.95005059    -0.05690
C1145       C  0.77907064  0.42842614  0.95967302    -0.32660
C1146       C  0.80034451  0.45056050  0.93092434     0.36390
H1147       H  0.73683212  0.43812543  0.85172425     0.16760
O1148       O  0.69074866  0.39728988  0.90088972    -0.60160
H1149       H  0.79117973  0.42543878  0.98966341     0.16780
O1150       O  0.83669752  0.46729851  0.94077745    -0.60260
H1151       H  0.83013578  0.49114622  0.95731730     0.43770
H1152       H  0.69766039  0.37004897  0.89102148     0.43730
C1153       C  0.74255761  0.58670096  0.94972319    -0.05330
C1154       C  0.72146374  0.56278351  0.92220617    -0.32760
C1155       C  0.74192739  0.54123830  0.89253896     0.36490
C1156       C  0.78414413  0.54226913  0.89113917    -0.05690
C1157       C  0.80523492  0.56610013  0.91861798    -0.32660
C1158       C  0.78480643  0.58848353  0.94756203     0.36390
H1159       H  0.68893893  0.56148190  0.92310700     0.16760
O1160       O  0.72053278  0.51950427  0.86493241    -0.60160
H1161       H  0.83777639  0.56715705  0.91767112     0.16780
O1162       O  0.80650457  0.61057278  0.97465724    -0.60260
H1163       H  0.81331693  0.63592926  0.96052625     0.43770
H1164       H  0.70649018  0.53965395  0.84811814     0.43730
C1165       C  0.94624774  0.58676282  0.74117980    -0.05330
C1166       C  0.95677072  0.56905281  0.77777047    -0.32760
C1167       C  0.92842563  0.54698338  0.79964904     0.36490
C1168       C  0.88891843  0.54316203  0.78521191    -0.05690
C1169       C  0.87812331  0.56187986  0.74912362    -0.32660
C1170       C  0.90666413  0.58339507  0.72695209     0.36390
H1171       H  0.98713515  0.57195128  0.78912553     0.16760
O1172       O  0.93908260  0.53022281  0.83569440    -0.60160
H1173       H  0.84759902  0.55956137  0.73811604     0.16780
O1174       O  0.89559993  0.60129193  0.69163858    -0.60260
H1175       H  0.88655866  0.62864926  0.69920914     0.43770
H1176       H  0.95716733  0.50755371  0.82892686     0.43730
loop_ 
_geom_bond_atom_site_label_1 
_geom_bond_atom_site_label_2 
_geom_bond_distance 
_geom_bond_site_symmetry_2 
_ccdc_geom_bond_type 
C1            C2   1.408       .  A
C1            C6   1.412       .  A
C1         C1168   1.482       .  S
C2            C3   1.412       .  A
C2         C1117   1.486       .  S
C3            C4   1.415       .  A
C3         C1156   1.483       .  S
C4            C5   1.411       .  A
C4         C1141   1.483       .  S
C5            C6   1.411       .  A
C5         C1105   1.486       .  S
C6         C1132   1.482       .  S
C7            C8   1.402       .  A
C7           C12   1.400       .  A
C7         C1093   1.472       .  S
C8            C9   1.403       .  A
C8           H13   1.085       .  S
C9           C10   1.405       .  A
C9         C1108   1.476       .  S
C10          C11   1.403       .  A
C10          H14   1.084       .  S
C11          C12   1.403       .  A
C11        C1081   1.478       .  S
C12          H15   1.085       .  S
C16          C17   1.412       .  A
C16          C21   1.417       .  A
C16        C1057   1.488       .  S
C17          C18   1.409       .  A
C17        C1096   1.481       .  S
C18          C19   1.410       .  A
C18        C1069   1.482       .  S
C19          C20   1.412       .  A
C19        C1045   1.485       .  S
C20          C21   1.417       .  A
C20        C1024   1.485       .  S
C21        C1033   1.490       .  S
C22          C23   1.413       .  A
C22          C27   1.417       .  A
C22         C985   1.487       .  S
C23          C24   1.408       .  A
C23        C1009   1.483       .  S
C24          C25   1.409       .  A
C24         C961   1.484       .  S
C25          C26   1.412       .  A
C25         C997   1.483       .  S
C26          C27   1.414       .  A
C26         C973   1.481       .  S
C27         C949   1.492       .  S
C28          C29   1.402       .  A
C28          C33   1.404       .  A
C28         C937   1.473       .  S
C29          C30   1.402       .  A
C29          H34   1.084       .  S
C30          C31   1.401       .  A
C30        C1021   1.474       .  S
C31          C32   1.404       .  A
C31          H35   1.084       .  S
C32          C33   1.403       .  A
C32         C952   1.477       .  S
C33          H36   1.084       .  S
C37          C38   1.412       .  A
C37          C42   1.413       .  A
C37         C913   1.481       .  S
C38          C39   1.412       .  A
C38         C877   1.490       .  S
C39          C40   1.413       .  A
C39         C925   1.480       .  S
C40          C41   1.411       .  A
C40         C892   1.483       .  S
C41          C42   1.409       .  A
C41         C865   1.484       .  S
C42         C901   1.484       .  S
C43          C44   1.404       .  A
C43          C48   1.403       .  A
C43         C964   1.474       .  S
C44          C45   1.402       .  A
C44          H49   1.084       .  S
C45          C46   1.402       .  A
C45         C856   1.475       .  S
C46          C47   1.400       .  A
C46          H50   1.085       .  S
C47          C48   1.402       .  A
C47         C868   1.472       .  S
C48          H51   1.084       .  S
C52          C53   1.413       .  A
C52          C57   1.416       .  A
C52         C841   1.481       .  S
C53          C54   1.412       .  A
C53         C793   1.490       .  S
C54          C55   1.409       .  A
C54         C832   1.480       .  S
C55          C56   1.408       .  A
C55         C805   1.480       .  S
C56          C57   1.414       .  A
C56         C784   1.489       .  S
C57         C817   1.487       .  S
C58          C59   1.416       .  A
C58          C63   1.412       .  A
C58         C736   1.490       .  S
C59          C60   1.416       .  A
C59         C757   1.485       .  S
C60          C61   1.414       .  A
C60         C853   1.485       .  S
C61          C62   1.410       .  A
C61         C772   1.487       .  S
C62          C63   1.407       .  A
C62         C745   1.483       .  S
C63         C721   1.481       .  S
C64          C65   1.404       .  A
C64          C69   1.400       .  A
C64         C709   1.472       .  S
C65          C66   1.405       .  A
C65          H70   1.084       .  S
C66          C67   1.404       .  A
C66         C781   1.475       .  S
C67          C68   1.399       .  A
C67          H71   1.084       .  S
C68          C69   1.398       .  A
C68         C724   1.469       .  S
C69          H72   1.085       .  S
C73          C74   1.410       .  A
C73          C78   1.415       .  A
C73         C685   1.486       .  S
C74          C75   1.411       .  A
C74         C712   1.484       .  S
C75          C76   1.414       .  A
C75         C697   1.491       .  S
C76          C77   1.417       .  A
C76         C664   1.482       .  S
C77          C78   1.418       .  A
C77         C652   1.493       .  S
C78         C676   1.490       .  S
C79          C80   1.417       .  A
C79          C84   1.421       .  A
C79         C637   1.490       .  S
C80          C81   1.409       .  A
C80         C589   1.485       .  S
C81          C82   1.409       .  A
C81         C625   1.483       .  S
C82          C83   1.410       .  A
C82         C613   1.483       .  S
C83          C84   1.419       .  A
C83         C577   1.486       .  S
C84         C601   1.496       .  S
C85          C86   1.398       .  A
C85          C90   1.399       .  A
C85         C580   1.471       .  S
C86          C87   1.403       .  A
C86          H91   1.085       .  S
C87          C88   1.407       .  A
C87         C649   1.480       .  S
C88          C89   1.407       .  A
C88          H92   1.084       .  S
C89          C90   1.403       .  A
C89         C568   1.476       .  S
C90          H93   1.085       .  S
C94          C95   1.409       .  A
C94          C99   1.414       .  A
C94         C529   1.480       .  S
C95          C96   1.410       .  A
C95         C940   1.484       .  S
C96          C97   1.412       .  A
C96         C520   1.482       .  S
C97          C98   1.408       .  A
C97         C556   1.478       .  S
C98          C99   1.410       .  A
C98         C565   1.485       .  S
C99         C541   1.482       .  S
C100        C101   1.407       .  A
C100        C105   1.413       .  A
C100        C505   1.478       .  S
C101        C102   1.410       .  A
C101        C457   1.487       .  S
C102        C103   1.414       .  A
C102        C496   1.484       .  S
C103        C104   1.413       .  A
C103        C469   1.479       .  S
C104        C105   1.413       .  A
C104        C445   1.491       .  S
C105        C481   1.486       .  S
C106        C107   1.415       .  A
C106        C111   1.415       .  A
C106        C433   1.485       .  S
C107        C108   1.415       .  A
C107       C1084   1.491       .  S
C108        C109   1.412       .  A
C108        C424   1.484       .  S
C109        C110   1.410       .  A
C109        C400   1.483       .  S
C110        C111   1.412       .  A
C110        C385   1.488       .  S
C111        C409   1.484       .  S
C112        C113   1.405       .  A
C112        C117   1.405       .  A
C112        C592   1.476       .  S
C113        C114   1.404       .  A
C113        H118   1.084       .  S
C114        C115   1.403       .  A
C114        C448   1.479       .  S
C115        C116   1.402       .  A
C115        H119   1.084       .  S
C116        C117   1.402       .  A
C116        C388   1.477       .  S
C117        H120   1.084       .  S
C121        C122   1.413       .  A
C121        C126   1.411       .  A
C121        C337   1.480       .  S
C122        C123   1.410       .  A
C122        C373   1.482       .  S
C123        C124   1.411       .  A
C123        C325   1.486       .  S
C124        C125   1.412       .  A
C124        C361   1.479       .  S
C125        C126   1.410       .  A
C125        C349   1.484       .  S
C126        C313   1.483       .  S
C127        C128   1.403       .  A
C127        C132   1.403       .  A
C127        C460   1.477       .  S
C128        C129   1.404       .  A
C128        H133   1.084       .  S
C129        C130   1.401       .  A
C129        C796   1.478       .  S
C130        C131   1.403       .  A
C130        H134   1.084       .  S
C131        C132   1.404       .  A
C131        C316   1.474       .  S
C132        H135   1.084       .  S
C136        C137   1.404       .  A
C136        C141   1.404       .  A
C136       C1120   1.476       .  S
C137        C138   1.402       .  A
C137        H142   1.084       .  S
C138        C139   1.404       .  A
C138        C880   1.478       .  S
C139        C140   1.402       .  A
C139        H143   1.084       .  S
C140        C141   1.404       .  A
C140        C328   1.475       .  S
C141        H144   1.084       .  S
O145       Ni153   1.917   1_655  S
O145        C155   1.280       .  A
O146       Ni153   1.918       .  S
O146        C156   1.280       .  A
O147       Ni153   1.915       .  S
O147        C157   1.281       .  A
O148       Ni153   1.915   1_655  S
O148        C158   1.280       .  A
O149       Ni154   1.913   1_655  S
O149        C158   1.281       .  A
O150       Ni154   1.913       .  S
O150        C157   1.281       .  A
O151       Ni154   1.913       .  S
O151        C156   1.279       .  A
O152       Ni154   1.914   1_655  S
O152        C155   1.279       .  A
Ni153      Ni154   2.393       .  S
C155       C1165   1.465       .  S
C156        C760   1.465       .  S
C157       C1000   1.473       .  S
C158        C364   1.470       .  S
O159       Ni167   1.915       .  S
O159        C169   1.281       .  A
O160       Ni167   1.914   1_545  S
O160        C170   1.281       .  A
O161       Ni167   1.918   1_545  S
O161        C171   1.280       .  A
O162       Ni167   1.917       .  S
O162        C172   1.281       .  A
O163       Ni168   1.918       .  S
O163        C172   1.281       .  A
O164       Ni168   1.919   1_545  S
O164        C171   1.281       .  A
O165       Ni168   1.913   1_545  S
O165        C170   1.280       .  A
O166       Ni168   1.912       .  S
O166        C169   1.280       .  A
Ni167      Ni168   2.392       .  S
C169        C916   1.471       .  S
C170        C421   1.473       .  S
C171       C1060   1.468       .  S
C172        C376   1.472       .  S
O173       Ni181   1.912       .  S
O173        C183   1.280       .  A
O174       Ni181   1.913   1_556  S
O174        C184   1.281       .  A
O175       Ni181   1.914   1_556  S
O175        C185   1.280       .  A
O176       Ni181   1.914       .  S
O176        C186   1.281       .  A
O177       Ni182   1.914       .  S
O177        C186   1.281       .  A
O178       Ni182   1.915   1_556  S
O178        C185   1.280       .  A
O179       Ni182   1.912   1_556  S
O179        C184   1.281       .  A
O180       Ni182   1.913       .  S
O180        C183   1.280       .  A
Ni181      Ni182   2.391       .  S
C183        C829   1.470       .  S
C184       C1153   1.474       .  S
C185        C928   1.463       .  S
C186        C493   1.475       .  S
O187       Ni195   1.920       .  S
O187        C197   1.281       .  A
O188       Ni195   1.918   1_545  S
O188        C198   1.281       .  A
O189       Ni195   1.922   1_545  S
O189        C199   1.283       .  A
O190       Ni195   1.921       .  S
O190        C200   1.282       .  A
O191       Ni196   1.912   1_565  S
O191        C200   1.280       .  A
O192       Ni196   1.913       .  S
O192        C199   1.281       .  A
O193       Ni196   1.914       .  S
O193        C198   1.280       .  A
O194       Ni196   1.917   1_565  S
O194        C197   1.281       .  A
Ni195      Ni196   2.390   1_565  S
C197        C904   1.474       .  S
C198        C532   1.468       .  S
C199       C1036   1.481       .  S
C200        C769   1.477       .  S
O201       Ni209   1.908   1_655  S
O201        C211   1.280       .  A
O202       Ni209   1.911       .  S
O202        C212   1.280       .  A
O203       Ni209   1.916       .  S
O203        C213   1.280       .  A
O204       Ni209   1.915   1_655  S
O204        C214   1.280       .  A
O205       Ni210   1.916   1_655  S
O205        C214   1.280       .  A
O206       Ni210   1.916       .  S
O206        C213   1.280       .  A
O207       Ni210   1.917       .  S
O207        C212   1.281       .  A
O208       Ni210   1.918   1_655  S
O208        C211   1.282       .  A
Ni209      Ni210   2.392       .  S
C211       C1129   1.473       .  S
C212        C517   1.474       .  S
C213        C976   1.467       .  S
C214        C436   1.464       .  S
O215       Ni223   1.917   1_556  S
O215        C225   1.280       .  A
O216       Ni223   1.917       .  S
O216        C226   1.281       .  A
O217       Ni223   1.916       .  S
O217        C227   1.280       .  A
O218       Ni223   1.917   1_556  S
O218        C228   1.281       .  A
O219       Ni224   1.914   1_556  S
O219        C228   1.281       .  A
O220       Ni224   1.917       .  S
O220        C227   1.280       .  A
O221       Ni224   1.915       .  S
O221        C226   1.281       .  A
O222       Ni224   1.916   1_556  S
O222        C225   1.280       .  A
Ni223      Ni224   2.393       .  S
C225       C1012   1.466       .  S
C226        C808   1.469       .  S
C227        C688   1.466       .  S
C228        C889   1.474       .  S
O229       Ni237   1.918   1_556  S
O229        C239   1.281       .  A
O230       Ni237   1.916       .  S
O230        C240   1.281       .  A
O231       Ni237   1.917       .  S
O231        C241   1.280       .  A
O232       Ni237   1.917   1_556  S
O232        C242   1.280       .  A
O233       Ni238   1.916   1_556  S
O233        C242   1.280       .  A
O234       Ni238   1.917       .  S
O234        C241   1.280       .  A
O235       Ni238   1.919       .  S
O235        C240   1.280       .  A
O236       Ni238   1.913   1_556  S
O236        C239   1.280       .  A
Ni237      Ni238   2.394       .  S
C239       C1072   1.467       .  S
C240        C472   1.468       .  S
C241        C640   1.465       .  S
C242       C1144   1.466       .  S
O243       Ni251   1.917   1_565  S
O243        C253   1.280       .  A
O244       Ni251   1.918       .  S
O244        C254   1.280       .  A
O245       Ni251   1.916       .  S
O245        C255   1.281       .  A
O246       Ni251   1.917   1_565  S
O246        C256   1.281       .  A
O247       Ni252   1.916   1_565  S
O247        C256   1.281       .  A
O248       Ni252   1.917       .  S
O248        C255   1.281       .  A
O249       Ni252   1.916       .  S
O249        C254   1.280       .  A
O250       Ni252   1.915   1_565  S
O250        C253   1.280       .  A
Ni251      Ni252   2.393       .  S
C253        C844   1.465       .  S
C254        C397   1.468       .  S
C255        C628   1.471       .  S
C256        C340   1.471       .  S
O257       Ni265   1.912   1_655  S
O257        C267   1.279       .  A
O258       Ni265   1.911       .  S
O258        C268   1.280       .  A
O259       Ni265   1.915       .  S
O259        C269   1.281       .  A
O260       Ni265   1.917   1_655  S
O260        C270   1.281       .  A
O261       Ni266   1.919   1_655  S
O261        C270   1.281       .  A
O262       Ni266   1.922       .  S
O262        C269   1.282       .  A
O263       Ni266   1.920       .  S
O263        C268   1.282       .  A
O264       Ni266   1.916   1_655  S
O264        C267   1.280       .  A
Ni265      Ni266   2.390       .  S
C267        C508   1.465       .  S
C268        C733   1.479       .  S
C269        C700   1.481       .  S
C270        C352   1.472       .  S
O271       Ni279   1.912       .  S
O271        C281   1.279       .  A
O272       Ni279   1.910   1_655  S
O272        C282   1.280       .  A
O273       Ni279   1.917   1_655  S
O273        C283   1.282       .  A
O274       Ni279   1.915       .  S
O274        C284   1.281       .  A
O275       Ni280   1.913       .  S
O275        C284   1.280       .  A
O276       Ni280   1.914   1_655  S
O276        C283   1.281       .  A
O277       Ni280   1.919   1_655  S
O277        C282   1.282       .  A
O278       Ni280   1.916       .  S
O278        C281   1.280       .  A
Ni279      Ni280   2.392       .  S
C281        C661   1.462       .  S
C282        C412   1.474       .  S
C283        C484   1.476       .  S
C284        C553   1.467       .  S
O285       Ni293   1.914       .  S
O285        C295   1.281       .  A
O286       Ni293   1.915   1_545  S
O286        C296   1.281       .  A
O287       Ni293   1.917   1_545  S
O287        C297   1.281       .  A
O288       Ni293   1.917       .  S
O288        C298   1.280       .  A
O289       Ni294   1.916       .  S
O289        C298   1.280       .  A
O290       Ni294   1.915   1_545  S
O290        C297   1.280       .  A
O291       Ni294   1.916   1_545  S
O291        C296   1.281       .  A
O292       Ni294   1.915       .  S
O292        C295   1.281       .  A
Ni293      Ni294   2.391       .  S
C295        C820   1.478       .  S
C296        C544   1.473       .  S
C297        C616   1.471       .  S
C298        C748   1.467       .  S
O299       Ni307   1.924   1_556  S
O299        C309   1.282       .  A
O300       Ni307   1.919       .  S
O300        C310   1.282       .  A
O301       Ni307   1.933       .  S
O301        C311   1.285       .  A
O302       Ni307   1.928   1_556  S
O302        C312   1.283       .  A
O303       Ni308   1.902   1_556  S
O303        C312   1.279       .  A
O304       Ni308   1.902       .  S
O304        C311   1.278       .  A
O305       Ni308   1.910       .  S
O305        C310   1.280       .  A
O306       Ni308   1.915   1_556  S
O306        C309   1.280       .  A
Ni307      Ni308   2.388       .  S
C309       C1048   1.474       .  S
C310        C673   1.477       .  S
C311        C604   1.485       .  S
C312        C988   1.477       .  S
C313        C314   1.400       .  A
C313        C318   1.408       .  A
C314        C315   1.394       .  A
C314        H319   1.084       .  S
C315        C316   1.406       .  A
C315        O320   1.372       .  S
C316        C317   1.403       .  A
C317        C318   1.406       .  A
C317        H321   1.083       .  S
C318        O322   1.371       .  S
O320        H324   0.992       .  S
O322        H323   0.991       .  S
C325        C326   1.401       .  A
C325        C330   1.408       .  A
C326        C327   1.396       .  A
C326        H331   1.084       .  S
C327        C328   1.406       .  A
C327        O332   1.372       .  S
C328        C329   1.403       .  A
C329        C330   1.407       .  A
C329        H333   1.083       .  S
C330        O334   1.372       .  S
O332        H336   0.992       .  S
O334        H335   0.992       .  S
C337        C338   1.401       .  A
C337        C342   1.405       .  A
C338        C339   1.400       .  A
C338        H343   1.082       .  S
C339        C340   1.408       .  A
C339        O344   1.371       .  S
C340        C341   1.402       .  A
C341        C342   1.398       .  A
C341        H345   1.084       .  S
C342        O346   1.371       .  S
O344        H348   0.992       .  S
O346        H347   0.991       .  S
C349        C350   1.401       .  A
C349        C354   1.407       .  A
C350        C351   1.398       .  A
C350        H355   1.084       .  S
C351        C352   1.407       .  A
C351        O356   1.371       .  S
C352        C353   1.404       .  A
C353        C354   1.402       .  A
C353        H357   1.084       .  S
C354        O358   1.371       .  S
O356        H360   0.992   1_655  S
O358        H359   0.991       .  S
C361        C362   1.400       .  A
C361        C366   1.405       .  A
C362        C363   1.400       .  A
C362        H367   1.082       .  S
C363        C364   1.409       .  A
C363        O368   1.372       .  S
C364        C365   1.402       .  A
C365        C366   1.396       .  A
C365        H369   1.084       .  S
C366        O370   1.371       .  S
O368        H372   0.991       .  S
O370        H371   0.992       .  S
C373        C374   1.401       .  A
C373        C378   1.406       .  A
C374        C375   1.398       .  A
C374        H379   1.084       .  S
C375        C376   1.407       .  A
C375        O380   1.372       .  S
C376        C377   1.404       .  A
C377        C378   1.404       .  A
C377        H381   1.084       .  S
C378        O382   1.373       .  S
O380        H384   0.992       .  S
O382        H383   0.992       .  S
C385        C386   1.401       .  A
C385        C390   1.409       .  A
C386        C387   1.395       .  A
C386        H391   1.084       .  S
C387        C388   1.406       .  A
C387        O392   1.372       .  S
C388        C389   1.404       .  A
C389        C390   1.405       .  A
C389        H393   1.083       .  S
C390        O394   1.370       .  S
O392        H396   0.992       .  S
O394        H395   0.992       .  S
C397        C398   1.402       .  A
C397        C402   1.406       .  A
C398        C399   1.402       .  A
C398        H403   1.084       .  S
C399        C400   1.407       .  A
C399        O404   1.372       .  S
C400        C401   1.402       .  A
C401        C402   1.398       .  A
C401        H405   1.084       .  S
C402        O406   1.372       .  S
O404        H408   0.991       .  S
O406        H407   0.992       .  S
C409        C410   1.400       .  A
C409        C414   1.406       .  A
C410        C411   1.396       .  A
C410        H415   1.084       .  S
C411        C412   1.409       .  A
C411        O416   1.372       .  S
C412        C413   1.404       .  A
C413        C414   1.403       .  A
C413        H417   1.084       .  S
C414        O418   1.372       .  S
O416        H420   0.992       .  S
O418        H419   0.992       .  S
C421        C422   1.403       .  A
C421        C426   1.409       .  A
C422        C423   1.399       .  A
C422        H427   1.084       .  S
C423        C424   1.405       .  A
C423        O428   1.373       .  S
C424        C425   1.402       .  A
C425        C426   1.399       .  A
C425        H429   1.083       .  S
C426        O430   1.372       .  S
O428        H432   0.991       .  S
O430        H431   0.992       .  S
C433        C434   1.404       .  A
C433        C438   1.409       .  A
C434        C435   1.397       .  A
C434        H439   1.084       .  S
C435        C436   1.404       .  A
C435        O440   1.372   1_655  S
C436        C437   1.401       .  A
C437        C438   1.402       .  A
C437        H441   1.084       .  S
C438        O442   1.373       .  S
O440        H444   0.992       .  S
O442        H443   0.991       .  S
C445        C446   1.402       .  A
C445        C450   1.410       .  A
C446        C447   1.394       .  A
C446        H451   1.084       .  S
C447        C448   1.406       .  A
C447        O452   1.372       .  S
C448        C449   1.404       .  A
C449        C450   1.408       .  A
C449        H453   1.083       .  S
C450        O454   1.372       .  S
O452        H456   0.992       .  S
O454        H455   0.992       .  S
C457        C458   1.405       .  A
C457        C462   1.407       .  A
C458        C459   1.406       .  A
C458        H463   1.083       .  S
C459        C460   1.408       .  A
C459        O464   1.371       .  S
C460        C461   1.401       .  A
C461        C462   1.396       .  A
C461        H465   1.084       .  S
C462        O466   1.373       .  S
O464        H468   0.992       .  S
O466        H467   0.992       .  S
C469        C470   1.400       .  A
C469        C474   1.406       .  A
C470        C471   1.401       .  A
C470        H475   1.084       .  S
C471        C472   1.406       .  A
C471        O476   1.371       .  S
C472        C473   1.401       .  A
C473        C474   1.398       .  A
C473        H477   1.084       .  S
C474        O478   1.371       .  S
O476        H480   0.992       .  S
O478        H479   0.991       .  S
C481        C482   1.402       .  A
C481        C486   1.406       .  A
C482        C483   1.399       .  A
C482        H487   1.083       .  S
C483        C484   1.410       .  A
C483        O488   1.372       .  S
C484        C485   1.403       .  A
C485        C486   1.400       .  A
C485        H489   1.084       .  S
C486        O490   1.373       .  S
O488        H492   0.992       .  S
O490        H491   0.991       .  S
C493        C494   1.404       .  A
C493        C498   1.411       .  A
C494        C495   1.397       .  A
C494        H499   1.084       .  S
C495        C496   1.406       .  A
C495        O500   1.372       .  S
C496        C497   1.402       .  A
C497        C498   1.398       .  A
C497        H501   1.083       .  S
C498        O502   1.372       .  S
O500        H504   0.991       .  S
O502        H503   0.992       .  S
C505        C506   1.402       .  A
C505        C510   1.405       .  A
C506        C507   1.400       .  A
C506        H511   1.083       .  S
C507        C508   1.406       .  A
C507        O512   1.371       .  S
C508        C509   1.401       .  A
C509        C510   1.397       .  A
C509        H513   1.084       .  S
C510        O514   1.372       .  S
O512        H516   0.992       .  S
O514        H515   0.991       .  S
C517        C518   1.404       .  A
C517        C522   1.409       .  A
C518        C519   1.397       .  A
C518        H523   1.084       .  S
C519        C520   1.406       .  A
C519        O524   1.372       .  S
C520        C521   1.401       .  A
C521        C522   1.399       .  A
C521        H525   1.082       .  S
C522        O526   1.371       .  S
O524        H528   0.991       .  S
O526        H527   0.991       .  S
C529        C530   1.401       .  A
C529        C534   1.406       .  A
C530        C531   1.400       .  A
C530        H535   1.083       .  S
C531        C532   1.407       .  A
C531        O536   1.371       .  S
C532        C533   1.402       .  A
C533        C534   1.398       .  A
C533        H537   1.084       .  S
C534        O538   1.372       .  S
O536        H540   0.992       .  S
O538        H539   0.991       .  S
C541        C542   1.402       .  A
C541        C546   1.406       .  A
C542        C543   1.398       .  A
C542        H547   1.084       .  S
C543        C544   1.408       .  A
C543        O548   1.372       .  S
C544        C545   1.403       .  A
C545        C546   1.403       .  A
C545        H549   1.084       .  S
C546        O550   1.374       .  S
O548        H552   0.992       .  S
O550        H551   0.992       .  S
C553        C554   1.401       .  A
C553        C558   1.407       .  A
C554        C555   1.398       .  A
C554        H559   1.084       .  S
C555        C556   1.405       .  A
C555        O560   1.372       .  S
C556        C557   1.401       .  A
C557        C558   1.399       .  A
C557        H561   1.083       .  S
C558        O562   1.371       .  S
O560        H564   0.991       .  S
O562        H563   0.992       .  S
C565        C566   1.405       .  A
C565        C570   1.406       .  A
C566        C567   1.406       .  A
C566        H571   1.083       .  S
C567        C568   1.408       .  A
C567        O572   1.371       .  S
C568        C569   1.401       .  A
C569        C570   1.394       .  A
C569        H573   1.084       .  S
C570        O574   1.372       .  S
O572        H576   0.992       .  S
O574        H575   0.992       .  S
C577        C578   1.405       .  A
C577        C582   1.405       .  A
C578        C579   1.402       .  A
C578        H583   1.081       .  S
C579        C580   1.404       .  A
C579        O584   1.371       .  S
C580        C581   1.401       .  A
C581        C582   1.396       .  A
C581        H585   1.084       .  S
C582        O586   1.372       .  S
O584        H588   0.992       .  S
O586        H587   0.991       .  S
C589        C590   1.401       .  A
C589        C594   1.407       .  A
C590        C591   1.393       .  A
C590        H595   1.084       .  S
C591        C592   1.405       .  A
C591        O596   1.372       .  S
C592        C593   1.405       .  A
C593        C594   1.407       .  A
C593        H597   1.083       .  S
C594        O598   1.371       .  S
O596        H600   0.992       .  S
O598        H599   0.992       .  S
C601        C602   1.400       .  A
C601        C606   1.412       .  A
C602        C603   1.393       .  A
C602        H607   1.082       .  S
C603        C604   1.412       .  A
C603        O608   1.372       .  S
C604        C605   1.407       .  A
C605        C606   1.409       .  A
C605        H609   1.083       .  S
C606        O610   1.374       .  S
O608        H612   0.992       .  S
O610        H611   0.992       .  S
C613        C614   1.401       .  A
C613        C618   1.406       .  A
C614        C615   1.399       .  A
C614        H619   1.082       .  S
C615        C616   1.408       .  A
C615        O620   1.372       .  S
C616        C617   1.402       .  A
C617        C618   1.401       .  A
C617        H621   1.084       .  S
C618        O622   1.374       .  S
O620        H624   0.992       .  S
O622        H623   0.992       .  S
C625        C626   1.401       .  A
C625        C630   1.407       .  A
C626        C627   1.399       .  A
C626        H631   1.084       .  S
C627        C628   1.407       .  A
C627        O632   1.372       .  S
C628        C629   1.402       .  A
C629        C630   1.403       .  A
C629        H633   1.084       .  S
C630        O634   1.374       .  S
O632        H636   0.992       .  S
O634        H635   0.992       .  S
C637        C638   1.403       .  A
C637        C642   1.412       .  A
C638        C639   1.395       .  A
C638        H643   1.082       .  S
C639        C640   1.402       .  A
C639        O644   1.367       .  S
C640        C641   1.399       .  A
C641        C642   1.403       .  A
C641        H645   1.084       .  S
C642        O646   1.373       .  S
O644        H648   0.992       .  S
O646        H647   0.992       .  S
C649        C650   1.402       .  A
C649        C654   1.408       .  A
C650        C651   1.392       .  A
C650        H655   1.084       .  S
C651        C652   1.408       .  A
C651        O656   1.371       .  S
C652        C653   1.408       .  A
C653        C654   1.407       .  A
C653        H657   1.083       .  S
C654        O658   1.371       .  S
O656        H660   0.992       .  S
O658        H659   0.992       .  S
C661        C662   1.400       .  A
C661        C666   1.404       .  A
C662        C663   1.401       .  A
C662        H667   1.083       .  S
C663        C664   1.408       .  A
C663        O668   1.372       .  S
C664        C665   1.403       .  A
C665        C666   1.397       .  A
C665        H669   1.084       .  S
C666        O670   1.372       .  S
O668        H672   0.992       .  S
O670        H671   0.992       .  S
C673        C674   1.403       .  A
C673        C678   1.411       .  A
C674        C675   1.401       .  A
C674        H679   1.084       .  S
C675        C676   1.409       .  A
C675        O680   1.372       .  S
C676        C677   1.402       .  A
C677        C678   1.398       .  A
C677        H681   1.084       .  S
C678        O682   1.372       .  S
O680        H684   0.993       .  S
O682        H683   0.992       .  S
C685        C686   1.402       .  A
C685        C690   1.409       .  A
C686        C687   1.398       .  A
C686        H691   1.084       .  S
C687        C688   1.404       .  A
C687        O692   1.371       .  S
C688        C689   1.401       .  A
C689        C690   1.402       .  A
C689        H693   1.084       .  S
C690        O694   1.373       .  S
O692        H696   0.992       .  S
O694        H695   0.992       .  S
C697        C698   1.402       .  A
C697        C702   1.408       .  A
C698        C699   1.398       .  A
C698        H703   1.084       .  S
C699        C700   1.410       .  A
C699        O704   1.372       .  S
C700        C701   1.405       .  A
C701        C702   1.405       .  A
C701        H705   1.083       .  S
C702        O706   1.373       .  S
O704        H708   0.992       .  S
O706        H707   0.992       .  S
C709        C710   1.400       .  A
C709        C714   1.405       .  A
C710        C711   1.395       .  A
C710        H715   1.084       .  S
C711        C712   1.406       .  A
C711        O716   1.374       .  S
C712        C713   1.405       .  A
C713        C714   1.403       .  A
C713        H717   1.083       .  S
C714        O718   1.371       .  S
O716        H720   0.992       .  S
O718        H719   0.992       .  S
C721        C722   1.404       .  A
C721        C726   1.405       .  A
C722        C723   1.403       .  A
C722        H727   1.083       .  S
C723        C724   1.406       .  A
C723        O728   1.371       .  S
C724        C725   1.399       .  A
C725        C726   1.394       .  A
C725        H729   1.084       .  S
C726        O730   1.373       .  S
O728        H732   0.992       .  S
O730        H731   0.991       .  S
C733        C734   1.404       .  A
C733        C738   1.410       .  A
C734        C735   1.403       .  A
C734        H739   1.084       .  S
C735        C736   1.408       .  A
C735        O740   1.372       .  S
C736        C737   1.402       .  A
C737        C738   1.397       .  A
C737        H741   1.084       .  S
C738        O742   1.372       .  S
O740        H744   0.992       .  S
O742        H743   0.991       .  S
C745        C746   1.402       .  A
C745        C750   1.407       .  A
C746        C747   1.399       .  A
C746        H751   1.083       .  S
C747        C748   1.406       .  A
C747        O752   1.371       .  S
C748        C749   1.401       .  A
C749        C750   1.399       .  A
C749        H753   1.084       .  S
C750        O754   1.372       .  S
O752        H756   0.992       .  S
O754        H755   0.992       .  S
C757        C758   1.404       .  A
C757        C762   1.409       .  A
C758        C759   1.398       .  A
C758        H763   1.084       .  S
C759        C760   1.404       .  A
C759        O764   1.372       .  S
C760        C761   1.400       .  A
C761        C762   1.402       .  A
C761        H765   1.084       .  S
C762        O766   1.373       .  S
O764        H768   0.992       .  S
O766        H767   0.992       .  S
C769        C770   1.404       .  A
C769        C774   1.411       .  A
C770        C771   1.401       .  A
C770        H775   1.084       .  S
C771        C772   1.408       .  A
C771        O776   1.371       .  S
C772        C773   1.401       .  A
C773        C774   1.398       .  A
C773        H777   1.084       .  S
C774        O778   1.372       .  S
O776        H780   0.991       .  S
O778        H779   0.992       .  S
C781        C782   1.401       .  A
C781        C786   1.406       .  A
C782        C783   1.397       .  A
C782        H787   1.084       .  S
C783        C784   1.408       .  A
C783        O788   1.374       .  S
C784        C785   1.406       .  A
C785        C786   1.403       .  A
C785        H789   1.081       .  S
C786        O790   1.371       .  S
O788        H792   0.992       .  S
O790        H791   0.992       .  S
C793        C794   1.403       .  A
C793        C798   1.410       .  A
C794        C795   1.394       .  A
C794        H799   1.084       .  S
C795        C796   1.406       .  A
C795        O800   1.372       .  S
C796        C797   1.405       .  A
C797        C798   1.408       .  A
C797        H801   1.083       .  S
C798        O802   1.372       .  S
O800        H804   0.992       .  S
O802        H803   0.992       .  S
C805        C806   1.402       .  A
C805        C810   1.405       .  A
C806        C807   1.401       .  A
C806        H811   1.083       .  S
C807        C808   1.408       .  A
C807        O812   1.371       .  S
C808        C809   1.402       .  A
C809        C810   1.398       .  A
C809        H813   1.084       .  S
C810        O814   1.372       .  S
O812        H816   0.992       .  S
O814        H815   0.991       .  S
C817        C818   1.403       .  A
C817        C822   1.407       .  A
C818        C819   1.399       .  A
C818        H823   1.083       .  S
C819        C820   1.411       .  A
C819        O824   1.371       .  S
C820        C821   1.404       .  A
C821        C822   1.399       .  A
C821        H825   1.084       .  S
C822        O826   1.373       .  S
O824        H828   0.992       .  S
O826        H827   0.992       .  S
C829        C830   1.403       .  A
C829        C834   1.408       .  A
C830        C831   1.398       .  A
C830        H835   1.084       .  S
C831        C832   1.404       .  A
C831        O836   1.372       .  S
C832        C833   1.401       .  A
C833        C834   1.398       .  A
C833        H837   1.083       .  S
C834        O838   1.372       .  S
O836        H840   0.992       .  S
O838        H839   0.992       .  S
C841        C842   1.403       .  A
C841        C846   1.407       .  A
C842        C843   1.400       .  A
C842        H847   1.083       .  S
C843        C844   1.406       .  A
C843        O848   1.371       .  S
C844        C845   1.400       .  A
C845        C846   1.399       .  A
C845        H849   1.084       .  S
C846        O850   1.372       .  S
O848        H852   0.992       .  S
O850        H851   0.991       .  S
C853        C854   1.401       .  A
C853        C858   1.408       .  A
C854        C855   1.392       .  A
C854        H859   1.083       .  S
C855        C856   1.406       .  A
C855        O860   1.372       .  S
C856        C857   1.404       .  A
C857        C858   1.407       .  A
C857        H861   1.083       .  S
C858        O862   1.372       .  S
O860        H864   0.992       .  S
O862        H863   0.992       .  S
C865        C866   1.401       .  A
C865        C870   1.408       .  A
C866        C867   1.395       .  A
C866        H871   1.084       .  S
C867        C868   1.405       .  A
C867        O872   1.372       .  S
C868        C869   1.402       .  A
C869        C870   1.406       .  A
C869        H873   1.083       .  S
C870        O874   1.371       .  S
O872        H876   0.992       .  S
O874        H875   0.992       .  S
C877        C878   1.402       .  A
C877        C882   1.409       .  A
C878        C879   1.395       .  A
C878        H883   1.084       .  S
C879        C880   1.407       .  A
C879        O884   1.372       .  S
C880        C881   1.404       .  A
C881        C882   1.406       .  A
C881        H885   1.083       .  S
C882        O886   1.370       .  S
O884        H888   0.992       .  S
O886        H887   0.991       .  S
C889        C890   1.405       .  A
C889        C894   1.409       .  A
C890        C891   1.401       .  A
C890        H895   1.084       .  S
C891        C892   1.406       .  A
C891        O896   1.371       .  S
C892        C893   1.400       .  A
C893        C894   1.396       .  A
C893        H897   1.083       .  S
C894        O898   1.372       .  S
O896        H900   0.992       .  S
O898        H899   0.992   1_556  S
C901        C902   1.402       .  A
C901        C906   1.406       .  A
C902        C903   1.401       .  A
C902        H907   1.083       .  S
C903        C904   1.409       .  A
C903        O908   1.372       .  S
C904        C905   1.402       .  A
C905        C906   1.399       .  A
C905        H909   1.084       .  S
C906        O910   1.371       .  S
O908        H912   0.992       .  S
O910        H911   0.992       .  S
C913        C914   1.401       .  A
C913        C918   1.406       .  A
C914        C915   1.398       .  A
C914        H919   1.083       .  S
C915        C916   1.409       .  A
C915        O920   1.372       .  S
C916        C917   1.402       .  A
C917        C918   1.398       .  A
C917        H921   1.084       .  S
C918        O922   1.372       .  S
O920        H924   0.992       .  S
O922        H923   0.991       .  S
C925        C926   1.403       .  A
C925        C930   1.407       .  A
C926        C927   1.400       .  A
C926        H931   1.083       .  S
C927        C928   1.406       .  A
C927        O932   1.372       .  S
C928        C929   1.400       .  A
C929        C930   1.396       .  A
C929        H933   1.084       .  S
C930        O934   1.372       .  S
O932        H936   0.992       .  S
O934        H935   0.991       .  S
C937        C938   1.400       .  A
C937        C942   1.407       .  A
C938        C939   1.395       .  A
C938        H943   1.084       .  S
C939        C940   1.406       .  A
C939        O944   1.372       .  S
C940        C941   1.404       .  A
C941        C942   1.405       .  A
C941        H945   1.082       .  S
C942        O946   1.371       .  S
O944        H948   0.992       .  S
O946        H947   0.992       .  S
C949        C950   1.403       .  A
C949        C954   1.411       .  A
C950        C951   1.394       .  A
C950        H955   1.084       .  S
C951        C952   1.406       .  A
C951        O956   1.372       .  S
C952        C953   1.403       .  A
C953        C954   1.408       .  A
C953        H957   1.083       .  S
C954        O958   1.373       .  S
O956        H960   0.992       .  S
O958        H959   0.991       .  S
C961        C962   1.404       .  A
C961        C966   1.407       .  A
C962        C963   1.405       .  A
C962        H967   1.083       .  S
C963        C964   1.408       .  A
C963        O968   1.371       .  S
C964        C965   1.400       .  A
C965        C966   1.394       .  A
C965        H969   1.084       .  S
C966        O970   1.372       .  S
O968        H972   0.991       .  S
O970        H971   0.992       .  S
C973        C974   1.402       .  A
C973        C978   1.407       .  A
C974        C975   1.400       .  A
C974        H979   1.083       .  S
C975        C976   1.407       .  A
C975        O980   1.371       .  S
C976        C977   1.401       .  A
C977        C978   1.399       .  A
C977        H981   1.084       .  S
C978        O982   1.372       .  S
O980        H984   0.992       .  S
O982        H983   0.991       .  S
C985        C986   1.405       .  A
C985        C990   1.404       .  A
C986        C987   1.403       .  A
C986        H991   1.083       .  S
C987        C988   1.409       .  A
C987        O992   1.371       .  S
C988        C989   1.404       .  A
C989        C990   1.396       .  A
C989        H993   1.084       .  S
C990        O994   1.374       .  S
O992        H996   0.992       .  S
O994        H995   0.991       .  S
C997        C998   1.402       .  A
C997       C1002   1.405       .  A
C998        C999   1.399       .  A
C998       H1003   1.083       .  S
C999       C1000   1.409       .  A
C999       O1004   1.372       .  S
C1000      C1001   1.403       .  A
C1001      C1002   1.399       .  A
C1001      H1005   1.084       .  S
C1002      O1006   1.373       .  S
O1004      H1008   0.992       .  S
O1006      H1007   0.992       .  S
C1009      C1010   1.403       .  A
C1009      C1014   1.406       .  A
C1010      C1011   1.400       .  A
C1010      H1015   1.083       .  S
C1011      C1012   1.406       .  A
C1011      O1016   1.372       .  S
C1012      C1013   1.399       .  A
C1013      C1014   1.399       .  A
C1013      H1017   1.082       .  S
C1014      O1018   1.372       .  S
O1016      H1020   0.992       .  S
O1018      H1019   0.991       .  S
C1021      C1022   1.403       .  A
C1021      C1026   1.405       .  A
C1022      C1023   1.407       .  A
C1022      H1027   1.083       .  S
C1023      C1024   1.409       .  A
C1023      O1028   1.372       .  S
C1024      C1025   1.401       .  A
C1025      C1026   1.395       .  A
C1025      H1029   1.084       .  S
C1026      O1030   1.372       .  S
O1028      H1032   0.992       .  S
O1030      H1031   0.992       .  S
C1033      C1034   1.402       .  A
C1033      C1038   1.408       .  A
C1034      C1035   1.397       .  A
C1034      H1039   1.083       .  S
C1035      C1036   1.410       .  A
C1035      O1040   1.372       .  S
C1036      C1037   1.405       .  A
C1037      C1038   1.406       .  A
C1037      H1041   1.084       .  S
C1038      O1042   1.374       .  S
O1040      H1044   0.992       .  S
O1042      H1043   0.992       .  S
C1045      C1046   1.402       .  A
C1045      C1050   1.406       .  A
C1046      C1047   1.399       .  A
C1046      H1051   1.084       .  S
C1047      C1048   1.407       .  A
C1047      O1052   1.372       .  S
C1048      C1049   1.404       .  A
C1049      C1050   1.406       .  A
C1049      H1053   1.084       .  S
C1050      O1054   1.374       .  S
O1052      H1056   0.992       .  S
O1054      H1055   0.991       .  S
C1057      C1058   1.404       .  A
C1057      C1062   1.408       .  A
C1058      C1059   1.400       .  A
C1058      H1063   1.083       .  S
C1059      C1060   1.405       .  A
C1059      O1064   1.372       .  S
C1060      C1061   1.400       .  A
C1061      C1062   1.401       .  A
C1061      H1065   1.084       .  S
C1062      O1066   1.372       .  S
O1064      H1068   0.992       .  S
O1066      H1067   0.992       .  S
C1069      C1070   1.402       .  A
C1069      C1074   1.406       .  A
C1070      C1071   1.398       .  A
C1070      H1075   1.084       .  S
C1071      C1072   1.405       .  A
C1071      O1076   1.371       .  S
C1072      C1073   1.402       .  A
C1073      C1074   1.403       .  A
C1073      H1077   1.083       .  S
C1074      O1078   1.374       .  S
O1076      H1080   0.992       .  S
O1078      H1079   0.992       .  S
C1081      C1082   1.404       .  A
C1081      C1086   1.407       .  A
C1082      C1083   1.408       .  A
C1082      H1087   1.083       .  S
C1083      C1084   1.411       .  A
C1083      O1088   1.372       .  S
C1084      C1085   1.403       .  A
C1085      C1086   1.393       .  A
C1085      H1089   1.084       .  S
C1086      O1090   1.372       .  S
O1088      H1092   0.991       .  S
O1090      H1091   0.992       .  S
C1093      C1094   1.404       .  A
C1093      C1098   1.405       .  A
C1094      C1095   1.406       .  A
C1094      H1099   1.083       .  S
C1095      C1096   1.407       .  A
C1095      O1100   1.371       .  S
C1096      C1097   1.400       .  A
C1097      C1098   1.392       .  A
C1097      H1101   1.084       .  S
C1098      O1102   1.372       .  S
O1100      H1104   0.991       .  S
O1102      H1103   0.992       .  S
C1105      C1106   1.401       .  A
C1105      C1110   1.408       .  A
C1106      C1107   1.395       .  A
C1106      H1111   1.084       .  S
C1107      C1108   1.406       .  A
C1107      O1112   1.372       .  S
C1108      C1109   1.404       .  A
C1109      C1110   1.407       .  A
C1109      H1113   1.083       .  S
C1110      O1114   1.372       .  S
O1112      H1116   0.992       .  S
O1114      H1115   0.992       .  S
C1117      C1118   1.405       .  A
C1117      C1122   1.407       .  A
C1118      C1119   1.406       .  A
C1118      H1123   1.083       .  S
C1119      C1120   1.408       .  A
C1119      O1124   1.371       .  S
C1120      C1121   1.400       .  A
C1121      C1122   1.393       .  A
C1121      H1125   1.084       .  S
C1122      O1126   1.372       .  S
O1124      H1128   0.992       .  S
O1126      H1127   0.992       .  S
C1129      C1130   1.404       .  A
C1129      C1134   1.409       .  A
C1130      C1131   1.403       .  A
C1130      H1135   1.084       .  S
C1131      C1132   1.406       .  A
C1131      O1136   1.373       .  S
C1132      C1133   1.400       .  A
C1133      C1134   1.395       .  A
C1133      H1137   1.084       .  S
C1134      O1138   1.372       .  S
O1136      H1140   0.992       .  S
O1138      H1139   0.992       .  S
C1141      C1142   1.402       .  A
C1141      C1146   1.407       .  A
C1142      C1143   1.400       .  A
C1142      H1147   1.083       .  S
C1143      C1144   1.406       .  A
C1143      O1148   1.371       .  S
C1144      C1145   1.401       .  A
C1145      C1146   1.400       .  A
C1145      H1149   1.084       .  S
C1146      O1150   1.372       .  S
O1148      H1152   0.992       .  S
O1150      H1151   0.992       .  S
C1153      C1154   1.404       .  A
C1153      C1158   1.409       .  A
C1154      C1155   1.400       .  A
C1154      H1159   1.084       .  S
C1155      C1156   1.406       .  A
C1155      O1160   1.372       .  S
C1156      C1157   1.402       .  A
C1157      C1158   1.397       .  A
C1157      H1161   1.084       .  S
C1158      O1162   1.372       .  S
O1160      H1164   0.991       .  S
O1162      H1163   0.992       .  S
C1165      C1166   1.400       .  A
C1165      C1170   1.405       .  A
C1166      C1167   1.399       .  A
C1166      H1171   1.084       .  S
C1167      C1168   1.407       .  A
C1167      O1172   1.372       .  S
C1168      C1169   1.402       .  A
C1169      C1170   1.399       .  A
C1169      H1173   1.083       .  S
C1170      O1174   1.371       .  S
O1172      H1176   0.991       .  S
O1174      H1175   0.992       .  S
