geometry optimzed in LAMMPS
_audit_creation_date              2020-11-30 
_audit_creation_method            'lammps2cif' 
_symmetry_space_group_name_H-M    'P1' 
_symmetry_Int_Tables_number       1 
_symmetry_cell_setting            triclinic 
loop_ 
_symmetry_equiv_pos_as_xyz 
  x,y,z 
_cell_length_a                    45.45884727 
_cell_length_b                    45.52328027268955 
_cell_length_c                    45.554297454378585 
_cell_angle_alpha                 89.91464915315503 
_cell_angle_beta                  89.98178738338189 
_cell_angle_gamma                 89.890403094183 
loop_ 
_atom_site_label 
_atom_site_type_symbol 
_atom_site_fract_x 
_atom_site_fract_y 
_atom_site_fract_z 
_atom_site_charge 
C1          C  0.50699243  0.40250352  0.07087585     0.42500
N2          N  0.49510003  0.43117485  0.03525106     0.01400
C3          C  0.58410850  0.51547585  0.94509819    -0.06500
H4          H  0.58686891  0.54471855  0.05736772     0.06900
C5          C  0.48127644  0.57096777  0.05164730    -0.06900
Co6        Co  0.54723705  0.45457199  0.00279482     0.74200
N7          N  0.56737567  0.50979190  0.03198105    -0.26000
Co8        Co  0.54398937  0.53088014  0.99840699     0.74100
C9          C  0.50796209  0.58413199  0.06397026     0.42600
N10         N  0.44571981  0.50446251  0.03276024     0.01000
N11         N  0.51986243  0.55449841  0.02932215     0.01100
N12         N  0.58605589  0.46591145  0.94885478    -0.46900
H13         H  0.55652009  0.40897345  0.06156955     0.06800
N14         N  0.56851192  0.48084464  0.03418384     0.01400
N15         N  0.51918593  0.55101300  0.96500854     0.01100
C16         C  0.50520516  0.57611127  0.92745402     0.42700
N17         N  0.44719742  0.47548023  0.03338102    -0.25500
C18         C  0.53502395  0.41283495  0.94964555    -0.06400
N19         N  0.48406024  0.41404221  0.05598734    -0.46600
N20         N  0.52913764  0.56668040  0.94245105    -0.46800
C21         C  0.50876308  0.40140023  0.93529317     0.42500
N22         N  0.56921762  0.47752400  0.96959958     0.01400
N23         N  0.44759734  0.47333746  0.96932451    -0.25500
N24         N  0.52411589  0.43175188  0.03539602    -0.26000
N25         N  0.44594388  0.50226372  0.96840230     0.01000
H26         H  0.42883210  0.43918070  0.94235491     0.06900
H27         H  0.45635270  0.56902591  0.93845432     0.06900
N28         N  0.56770245  0.50643959  0.96785633    -0.26100
N29         N  0.49086942  0.55308039  0.03024065    -0.25700
N30         N  0.49569610  0.42905530  0.97097497     0.01400
C31         C  0.59435252  0.49649766  0.07040059     0.42800
C32         C  0.43026546  0.46545512  0.05530321    -0.06900
N33         N  0.49014945  0.55008342  0.96596908    -0.25700
H34         H  0.45849126  0.57489417  0.05726202     0.06900
N35         N  0.58480435  0.47192048  0.05673284    -0.46900
H36         H  0.42648041  0.44261272  0.06062570     0.06900
C37         C  0.41990109  0.48789618  0.93193787     0.42600
C38         C  0.53373013  0.41412615  0.05707854    -0.06400
Co39       Co  0.47105454  0.45187529  0.00224104     0.73800
N40         N  0.42786603  0.51510697  0.05326284    -0.46600
C41         C  0.59607167  0.48854694  0.93252586     0.42900
N42         N  0.48521177  0.41202027  0.94985808    -0.46600
Co43       Co  0.46766460  0.52794188  0.99950958     0.73900
C44         C  0.47938927  0.56543043  0.94318898    -0.06900
C45         C  0.58324839  0.52153457  0.05379661    -0.06500
N46         N  0.52473675  0.42987483  0.97137887    -0.26000
N47         N  0.53090517  0.57287729  0.04893174    -0.46800
H48         H  0.58757070  0.53803847  0.93851063     0.06900
C49         C  0.43182760  0.46225337  0.94708276    -0.06900
Cl50       Cl  0.50748908  0.49133419  0.00083781    -0.49900
C51         C  0.41765315  0.49169780  0.06853420     0.42600
H52         H  0.55793877  0.40880792  0.94467026     0.06800
N53         N  0.42949167  0.51191408  0.94639110    -0.46600
C54         C  0.25297971  0.51785781  0.21022059     0.80200
N55         N  0.24110110  0.50860621  0.23620084    -0.78100
C56         C  0.21301312  0.51679141  0.24319519     0.82700
N57         N  0.19703922  0.53296708  0.22390491    -0.78000
C58         C  0.20881006  0.54240762  0.19827108     0.82800
N59         N  0.23689655  0.53500493  0.19192847    -0.79700
C60         C  0.75928070  0.53054435  0.21107202     0.80200
N61         N  0.77637089  0.54746141  0.19347542    -0.78100
C62         C  0.80431389  0.55425891  0.20106614     0.82700
N63         N  0.81518023  0.54430901  0.22694129    -0.78000
C64         C  0.79836476  0.52779046  0.24522254     0.82800
N65         N  0.77033000  0.52046107  0.23715390    -0.79700
C66         C  0.22059552  0.50372562  0.75052034     0.80200
N67         N  0.24918481  0.50184927  0.75964116    -0.78100
C68         C  0.25591071  0.50754812  0.78831792     0.82700
N69         N  0.23409516  0.51487785  0.80730428    -0.78000
C70         C  0.20577370  0.51658999  0.79838761     0.82800
N71         N  0.19916638  0.51093794  0.76998727    -0.79700
C72         C  0.79859206  0.48270266  0.75711107     0.80200
N73         N  0.81684159  0.49572664  0.77674880    -0.78100
C74         C  0.80841829  0.49993893  0.80499409     0.82700
N75         N  0.78115796  0.49126048  0.81329644    -0.78000
C76         C  0.76228204  0.47901924  0.79376341     0.82800
N77         N  0.77093757  0.47471637  0.76544267    -0.79700
N78         N  0.00165849  0.59059917  0.95611398    -0.36600
N79         N  0.04921597  0.59576736  0.99816686    -0.57100
N80         N  0.00565410  0.60868035  0.04350726    -0.36600
N81         N  0.95817094  0.60759010  0.00077613    -0.57100
C82         C  0.02516217  0.58961560  0.93792344     0.27000
C83         C  0.97743294  0.59424808  0.93939367     0.27000
C84         C  0.03085270  0.61357791  0.05831568     0.27000
C85         C  0.98342309  0.62001800  0.05957105     0.27000
C86         C  0.06411179  0.58337765  0.97572179     0.35600
C87         C  0.06606096  0.59211073  0.02226561     0.35600
C88         C  0.93986784  0.59835419  0.97929996     0.35600
C89         C  0.94215372  0.60805418  0.02583803     0.35600
C90         C  0.01579624  0.59292108  0.90916214    -0.21900
C91         C  0.98564838  0.59546601  0.91004321    -0.21900
C92         C  0.02464033  0.62839659  0.08418570    -0.21900
C93         C  0.99463961  0.63257482  0.08492168    -0.21900
C94         C  0.09084203  0.57238200  0.98546118    -0.22900
C95         C  0.09210490  0.57796413  0.01499263    -0.22900
C96         C  0.91184203  0.59411949  0.99053233    -0.22900
C97         C  0.91335492  0.59995236  0.02002750    -0.22900
C98         C  0.05433617  0.58274376  0.94633644    -0.18300
C99         C  0.94808562  0.59313220  0.94974262    -0.18300
C100        C  0.95321488  0.61548201  0.05395827    -0.18300
C101        C  0.05867740  0.60213239  0.05062222    -0.18300
H102        H  0.02917572  0.59234672  0.88951003     0.14600
H103        H  0.97146024  0.59723272  0.89107751     0.14600
H104        H  0.03999478  0.63464860  0.10120943     0.14600
H105        H  0.98231495  0.64250396  0.10266981     0.14600
H106        H  0.10763520  0.56140298  0.97266443     0.12900
H107        H  0.11011602  0.57220138  0.02944476     0.12900
H108        H  0.89244058  0.58690898  0.97884025     0.12900
H109        H  0.89533414  0.59804608  0.03543048     0.12900
H110        H  0.00169832  0.58626538  0.97850962     0.26200
H111        H  0.00347331  0.59554701  0.02499911     0.26200
C112        C  0.07218561  0.49438652  0.41153193     0.42500
N113        N  0.03698454  0.47946702  0.43923810     0.01400
C114        C  0.95166798  0.56326600  0.53406982    -0.06500
H115        H  0.06622872  0.56930794  0.55313619     0.06900
C116        C  0.06476347  0.45874784  0.57439068    -0.06900
Co117      Co  0.00517414  0.52992299  0.46739927     0.74200
N118        N  0.03889908  0.54907372  0.52033154    -0.26000
Co119      Co  0.00769884  0.52379682  0.54327623     0.74100
C120        C  0.07963755  0.48430362  0.58654145     0.42600
N121        N  0.03988166  0.42713401  0.51070965     0.01000
N122        N  0.04131754  0.49857775  0.56272543     0.01100
N123        N  0.95110293  0.56709599  0.48459594    -0.46900
H124        H  0.06250388  0.54285404  0.42198670     0.06800
N125        N  0.03831827  0.55099489  0.49144130     0.01400
N126        N  0.97636970  0.49767234  0.56502682     0.01100
C127        C  0.94026137  0.48230553  0.59135344     0.42700
N128        N  0.03887352  0.42899359  0.48179324    -0.25500
C129        C  0.95042058  0.51947328  0.42799277    -0.06400
N130        N  0.05784147  0.47017051  0.42103877    -0.46600
N131        N  0.95479214  0.50670773  0.58250350    -0.46800
C132        C  0.93586991  0.49429056  0.41474569     0.42500
N133        N  0.97333118  0.55048309  0.49375046     0.01400
N134        N  0.97445024  0.42805607  0.48405530    -0.25500
N135        N  0.03659344  0.50838468  0.44181517    -0.26000
N136        N  0.97568979  0.42583104  0.51295637     0.01600
H137        H  0.94776356  0.40615085  0.45150169     0.06900
H138        H  0.95033488  0.43403147  0.58044971     0.06900
N139        N  0.97423787  0.54797244  0.52262069    -0.26100
N140        N  0.04141368  0.46968930  0.55997035    -0.25700
N141        N  0.97212895  0.47914374  0.44124422     0.01400
C142        C  0.07520615  0.57820163  0.50394506     0.42800
C143        C  0.06034578  0.41187465  0.47071147    -0.06900
N144        N  0.97694270  0.46880446  0.56224011    -0.25700
H145        H  0.07036785  0.43574523  0.57647159     0.06900
N146        N  0.05944336  0.56813570  0.48084835    -0.46900
H147        H  0.06438477  0.40790525  0.44766110     0.06900
C148        C  0.94103832  0.39602213  0.50069576     0.42600
C149        C  0.05795699  0.51973074  0.42496983    -0.06400
Co150      Co  0.00552116  0.45352946  0.46099937     0.73800
N151        N  0.06077946  0.40923539  0.52025533    -0.46600
C152        C  0.93629200  0.57596092  0.50878272     0.42900
N153        N  0.95078501  0.47000257  0.42352235    -0.46600
Co154      Co  0.00848055  0.44757246  0.53683040     0.73900
C155        C  0.95506188  0.45719405  0.57816375    -0.06900
C156        C  0.06109476  0.56579216  0.53024556    -0.06500
N157        N  0.97244720  0.50805731  0.44393291    -0.26000
N158        N  0.06365080  0.50822557  0.57884576    -0.46800
H159        H  0.94680851  0.56546742  0.55720357     0.06900
C160        C  0.95311437  0.41006890  0.47429060    -0.06900
Cl161      Cl  0.00664980  0.48869331  0.50208262    -0.49900
C162        C  0.07509293  0.39920159  0.49639259     0.42600
H163        H  0.94592590  0.54262700  0.42504520     0.06800
N164        N  0.95637142  0.40679594  0.52368709    -0.46600
C165        C  0.49354907  0.78508197  0.24199251     0.80200
N166        N  0.50464575  0.75917765  0.23180196    -0.78100
C167        C  0.49484455  0.74844169  0.20564383     0.82700
N168        N  0.47406812  0.76336487  0.19025303    -0.78000
C169        C  0.46329552  0.78924157  0.20022417     0.82800
N170        N  0.47324885  0.79997515  0.22603299    -0.79700
C171        C  0.47733731  0.23754965  0.21313423     0.80200
N172        N  0.46015787  0.22039510  0.19600602    -0.78100
C173        C  0.45424719  0.19229081  0.20352928     0.82700
N174        N  0.46525532  0.18150818  0.22902066    -0.78000
C175        C  0.48172758  0.19864705  0.24699089     0.82800
N176        N  0.48842924  0.22668552  0.23877506    -0.79700
C177        C  0.50420350  0.23067622  0.79978893     0.80200
N178        N  0.49896824  0.21006599  0.82069691    -0.78100
C179        C  0.49349663  0.18174682  0.81353784     0.82700
N180        N  0.49373858  0.17413824  0.78474935    -0.78000
C181        C  0.49997951  0.19412088  0.76348923     0.82800
N182        N  0.50487071  0.22273559  0.77092160    -0.79700
C183        C  0.47054482  0.77733703  0.75166013     0.80200
N184        N  0.47892793  0.74909960  0.75788007    -0.78100
C185        C  0.47814003  0.73928975  0.78627115     0.82700
N186        N  0.46922372  0.75764979  0.80797315    -0.78000
C187        C  0.46066315  0.78550329  0.80194039     0.82800
N188        N  0.46139777  0.79505833  0.77381700    -0.79700
N189        N  0.39892590  0.02843260  0.00917889    -0.36600
N190        N  0.40911570  0.97935227  0.96912976    -0.57100
N191        N  0.38895786  0.93790916  0.01389568    -0.36600
N192        N  0.38161889  0.98688515  0.05467537    -0.57100
C193        C  0.41368053  0.04231780  0.98743874     0.27000
C194        C  0.39980941  0.04607376  0.03304136     0.27000
C195        C  0.39986478  0.91909395  0.99358399     0.27000
C196        C  0.38769590  0.92327031  0.03979302     0.27000
C197        C  0.41466435  0.00180682  0.95048627     0.35600
C198        C  0.40885528  0.95467222  0.95269527     0.35600
C199        C  0.37652736  0.01212299  0.06935406     0.35600
C200        C  0.37164927  0.96486578  0.07184610     0.35600
C201        C  0.42307706  0.06955216  0.99727720    -0.21900
C202        C  0.41452667  0.07183582  0.02605578    -0.21900
C203        C  0.40438619  0.89183730  0.00639184    -0.21900
C204        C  0.39728431  0.89459718  0.03556316    -0.21900
C205        C  0.41834574  0.99133088  0.92219338    -0.22900
C206        C  0.41467535  0.96152236  0.92356392    -0.22900
C207        C  0.36300433  0.00616801  0.09597368    -0.22900
C208        C  0.35979839  0.97619785  0.09750655    -0.22900
C209        C  0.41874196  0.03138740  0.95881614    -0.18300
C210        C  0.38778397  0.03980912  0.06103520    -0.18300
C211        C  0.37807845  0.93484913  0.06716359    -0.18300
C212        C  0.40589068  0.92576196  0.96378292    -0.18300
H213        H  0.43521260  0.08600915  0.98515012     0.14600
H214        H  0.41881812  0.09039909  0.04023372     0.14600
H215        H  0.41264044  0.87210677  0.99602176     0.14600
H216        H  0.39902181  0.87727683  0.05173578     0.14600
H217        H  0.42368262  0.00378818  0.90265661     0.12900
H218        H  0.41677167  0.94658818  0.90522149     0.12900
H219        H  0.35724993  0.02169131  0.11302135     0.12900
H220        H  0.35127495  0.96399584  0.11605410     0.12900
H221        H  0.38831995  0.00839366  0.00756418     0.26200
H222        H  0.38218488  0.95931717  0.01004836     0.26200
C223        C  0.20895473  0.74979917  0.54390148     0.80200
N224        N  0.19788652  0.76216636  0.56865396    -0.78100
C225        C  0.21176472  0.78425453  0.58288847     0.82700
N226        N  0.23770884  0.79396461  0.57207480    -0.78000
C227        C  0.24972647  0.78217853  0.54744245     0.82800
N228        N  0.23511164  0.76013035  0.53310662    -0.79700
C229        C  0.77607195  0.17995697  0.51190183     0.80200
N230        N  0.78374635  0.20834885  0.50554656    -0.78100
C231        C  0.81259510  0.21662711  0.50755823     0.82700
N232        N  0.83316399  0.19655253  0.51545384    -0.78000
C233        C  0.82568828  0.16865990  0.52234185     0.82800
N234        N  0.79708665  0.16059538  0.52062951    -0.79700
C235        C  0.20413499  0.22278052  0.53204362     0.80200
N236        N  0.23161742  0.21663281  0.52171318    -0.78100
C237        C  0.24365275  0.18969426  0.52681983     0.82700
N238        N  0.22787933  0.16894455  0.54123588    -0.78000
C239        C  0.20064377  0.17483274  0.55178690     0.82800
N240        N  0.18910868  0.20202764  0.54736434    -0.79700
C241        C  0.75721943  0.77811350  0.51916540     0.80200
N242        N  0.77639673  0.79547294  0.53393629    -0.78100
C243        C  0.80465323  0.78698132  0.53804767     0.82700
N244        N  0.81369756  0.76075970  0.52738858    -0.78000
C245        C  0.79482053  0.74272702  0.51312712     0.82800
N246        N  0.76630138  0.75137028  0.50886772    -0.79700
N247        N  0.96830722  0.97035490  0.62435030    -0.36600
N248        N  0.00810501  0.92392456  0.64335380    -0.57100
N249        N  0.05648400  0.96597813  0.64796901    -0.36600
N250        N  0.01667682  0.01178172  0.62660652    -0.57100
C251        C  0.95264289  0.94628510  0.61688739     0.27000
C252        C  0.95689361  0.99321348  0.60912916     0.27000
C253        C  0.07136622  0.94020893  0.64941751     0.27000
C254        C  0.07600703  0.98694886  0.63978717     0.27000
C255        C  0.98279818  0.90842398  0.64263869     0.35600
C256        C  0.02867211  0.90615604  0.65535698     0.35600
C257        C  0.99450893  0.03079482  0.62118232     0.35600
C258        C  0.04072925  0.02822829  0.63189230     0.35600
C259        C  0.93068730  0.95410941  0.59716930    -0.21900
C260        C  0.93331931  0.98373153  0.59236090    -0.21900
C261        C  0.10088885  0.94520649  0.64335620    -0.21900
C262        C  0.10378536  0.97462290  0.63730628    -0.21900
C263        C  0.98722915  0.88068635  0.65442132    -0.22900
C264        C  0.01635063  0.87921524  0.66239894    -0.22900
C265        C  0.00441090  0.05947067  0.62320912    -0.22900
C266        C  0.03379731  0.05785198  0.62974419    -0.22900
C267        C  0.95702848  0.91751728  0.62782334    -0.18300
C268        C  0.96670229  0.02258092  0.61036878    -0.18300
C269        C  0.06953516  0.01689351  0.63414030    -0.18300
C270        C  0.05917271  0.91208853  0.65529793    -0.18300
H271        H  0.91444965  0.93994863  0.58715000     0.14600
H272        H  0.91956468  0.99674771  0.57793254     0.14600
H273        H  0.11853580  0.92922836  0.64275811     0.14600
H274        H  0.12401206  0.98557342  0.63124321     0.14600
H275        H  0.97146779  0.86294805  0.65584741     0.12900
H276        H  0.02752536  0.86009613  0.67114438     0.12900
H277        H  0.99208324  0.07940524  0.61901213     0.12900
H278        H  0.04856027  0.07636682  0.63165397     0.12900
H279        H  0.98505897  0.97137546  0.63979327     0.26200
H280        H  0.03430420  0.96906758  0.65240913     0.26200
C281        C  0.50423734  0.92061949  0.41351406     0.42500
N282        N  0.49105899  0.95671237  0.44088424     0.01400
C283        C  0.58149254  0.04277578  0.52855898    -0.06500
H284        H  0.57941409  0.93067723  0.55730975     0.06900
C285        C  0.46929812  0.94016290  0.57741474    -0.06900
Co286      Co  0.54329011  0.98738091  0.46668766     0.74200
N287        N  0.56071909  0.95670143  0.52221175    -0.26000
Co288      Co  0.53760963  0.99075114  0.54264478     0.74100
C289        C  0.49394626  0.92397462  0.58990539     0.42600
N290        N  0.43875790  0.96192927  0.51272331     0.01000
N291        N  0.51051469  0.96017899  0.56444197     0.01100
N292        N  0.58448332  0.03880413  0.47916478    -0.46900
H293        H  0.55321531  0.92821050  0.42357929     0.06800
N294        N  0.56279645  0.95512431  0.49333033     0.01400
N295        N  0.51368156  0.02487621  0.56231558     0.01100
C296        C  0.50097721  0.06224411  0.58817526     0.42700
N297        N  0.44108283  0.96031573  0.48386921    -0.25500
C298        C  0.53458196  0.04075174  0.42394301    -0.06400
N299        N  0.48074054  0.93631468  0.42285799    -0.46600
N300        N  0.52424351  0.04586716  0.57951059    -0.46800
C301        C  0.50939630  0.05574179  0.41065185     0.42500
N302        N  0.56583338  0.01943337  0.49035553     0.01400
N303        N  0.44430815  0.02507085  0.48135379    -0.25500
N304        N  0.51998929  0.95567173  0.44339655    -0.26000
N305        N  0.44241935  0.02631927  0.51023737     0.01000
H306        H  0.42653591  0.05265257  0.44691696     0.06900
H307        H  0.45188497  0.05485708  0.57852130     0.06900
N308        N  0.56376375  0.02102346  0.51925089    -0.26100
N309        N  0.48162367  0.96189040  0.56188170    -0.25700
N310        N  0.49388350  0.02100518  0.43869123     0.01400
C311        C  0.58839398  0.91864260  0.50908373     0.42800
C312        C  0.42433675  0.93782924  0.47441821    -0.06900
N313        N  0.48475341  0.02602312  0.55986118    -0.25700
H314        H  0.44596026  0.93616395  0.57960469     0.06900
N315        N  0.57948878  0.93284934  0.48455596    -0.46900
H316        H  0.42143569  0.93128617  0.45179511     0.06900
C317        C  0.41830813  0.06407738  0.49548825     0.42600
C318        C  0.53026740  0.93353546  0.42695219    -0.06400
Co319      Co  0.46709166  0.99071817  0.46068305     0.73800
N320        N  0.42088022  0.94172434  0.52376363    -0.46600
C321        C  0.59496141  0.05466365  0.50182250     0.42900
N322        N  0.48496822  0.04212496  0.42067859    -0.46600
Co323      Co  0.46143675  0.99412318  0.53654068     0.73900
C324        C  0.47473449  0.04892058  0.57553100    -0.06900
C325        C  0.57631962  0.93460635  0.53409601    -0.06500
N326        N  0.52282521  0.01966660  0.44094961    -0.26000
N327        N  0.51887347  0.93774217  0.58118586    -0.46800
H328        H  0.58523847  0.04885053  0.55118954     0.06900
C329        C  0.42950878  0.04804466  0.47002096    -0.06900
Cl330      Cl  0.50238060  0.99072577  0.50163065    -0.49900
C331        C  0.41107689  0.92544603  0.50102276     0.42600
H332        H  0.55782808  0.04460307  0.42072904     0.06800
N333        N  0.42667898  0.04895064  0.51954943    -0.46600
C334        C  0.61102706  0.89517906  0.50972238     0.01400
C335        C  0.64082175  0.90235709  0.51423032     0.04200
C336        C  0.66246358  0.88012035  0.51417469    -0.11900
C337        C  0.65451513  0.85057796  0.50914963     0.23500
C338        C  0.62468789  0.84343387  0.50464086    -0.12400
C339        C  0.60295631  0.86559142  0.50568421     0.04900
C340        C  0.67754658  0.82714466  0.50994302     0.27300
C341        C  0.69521670  0.82160470  0.48507909    -0.13100
C342        C  0.71978718  0.80269710  0.48722346     0.05400
C343        C  0.72708125  0.78961327  0.51433850    -0.09100
C344        C  0.70827571  0.79364564  0.53864935     0.06200
C345        C  0.68342116  0.81209212  0.53638497    -0.13500
Br346      Br  0.61376903  0.80330163  0.49687112    -0.05500
Br347      Br  0.65190460  0.94269192  0.52085647     0.00100
Br348      Br  0.74488569  0.79653471  0.45366830     0.00500
Br349      Br  0.65829165  0.81815294  0.56998331    -0.03900
Br350      Br  0.56195721  0.85530865  0.50359549     0.00600
Br351      Br  0.70311252  0.89004341  0.52117634    -0.03200
Br352      Br  0.68669658  0.84142554  0.44862319    -0.04000
Br353      Br  0.71754280  0.77492883  0.57552793    -0.00100
C354        C  0.82525491  0.80572559  0.55474316     0.01400
C355        C  0.84246740  0.79349189  0.57761491     0.04200
C356        C  0.86247449  0.81120538  0.59305565    -0.11900
C357        C  0.86546622  0.84106753  0.58576176     0.23500
C358        C  0.84788997  0.85352554  0.56354630    -0.12400
C359        C  0.82803925  0.83588431  0.54781465     0.04900
C360        C  0.88957986  0.85853638  0.59875539     0.27300
C361        C  0.88460901  0.87629210  0.62356657    -0.13100
C362        C  0.90715193  0.89466426  0.63401466     0.05400
C363        C  0.93472291  0.89505086  0.61980157    -0.09100
C364        C  0.93980322  0.87672078  0.59537930     0.06200
C365        C  0.91728298  0.85847959  0.58493338    -0.13500
Br366      Br  0.85209432  0.89466045  0.55399199    -0.05500
Br367      Br  0.83882762  0.75255078  0.58834756     0.00100
Br368      Br  0.89994984  0.92049896  0.66676727     0.00500
Br369      Br  0.92375784  0.83438992  0.55065017    -0.03900
Br370      Br  0.80693532  0.85274481  0.51503065     0.00600
Br371      Br  0.88651233  0.79458851  0.62382717    -0.03200
Br372      Br  0.84660125  0.87617668  0.64235341    -0.04000
Br373      Br  0.97685962  0.87825600  0.57475989    -0.00100
C374        C  0.39479894  0.08647885  0.49590562     0.01400
C375        C  0.40144747  0.11648215  0.49208934     0.04200
C376        C  0.37904622  0.13782315  0.49480645    -0.11900
C377        C  0.35015575  0.12918741  0.50201263     0.23500
C378        C  0.34358280  0.09912578  0.50562693    -0.12400
C379        C  0.36572882  0.07783801  0.50209496     0.04900
C380        C  0.32635978  0.15127109  0.50612570     0.27300
C381        C  0.32192014  0.16417834  0.53389057    -0.13100
C382        C  0.29578180  0.17974818  0.53969219     0.05400
C383        C  0.27395248  0.18227512  0.51787576    -0.09100
C384        C  0.27955276  0.17167803  0.48938818     0.06200
C385        C  0.30580804  0.15628448  0.48347936    -0.13500
Br386      Br  0.30423016  0.08713477  0.51613542    -0.05500
Br387      Br  0.44135388  0.12826262  0.48400786     0.00100
Br388      Br  0.28891583  0.19627093  0.57808282     0.00500
Br389      Br  0.31276649  0.13999744  0.44503671    -0.03900
Br390      Br  0.35616546  0.03664893  0.50527506     0.00600
Br391      Br  0.38774324  0.17883699  0.48893724    -0.03200
Br392      Br  0.35059056  0.15854417  0.56459702    -0.04000
Br393      Br  0.25021903  0.17609289  0.45920935    -0.00100
C394        C  0.18317299  0.15123031  0.56651089     0.01400
C395        C  0.15220431  0.14975700  0.56263607     0.04200
C396        C  0.13580790  0.12768658  0.57674330    -0.11900
C397        C  0.15017756  0.10503552  0.59216934     0.23500
C398        C  0.18094098  0.10552625  0.59517040    -0.12400
C399        C  0.19729792  0.12913661  0.58361080     0.04900
C400        C  0.13273591  0.08009125  0.60393430     0.27300
C401        C  0.12562707  0.07865346  0.63405876    -0.13100
C402        C  0.10642707  0.05671978  0.64442561     0.05400
C403        C  0.09372889  0.03672279  0.62459633    -0.09100
C404        C  0.10146134  0.03769844  0.59461850     0.06200
C405        C  0.12134299  0.05897047  0.58442181    -0.13500
Br406      Br  0.20063999  0.07318053  0.61446605    -0.05500
Br407      Br  0.13164437  0.17548522  0.53567864     0.00100
Br408      Br  0.09588378  0.05505384  0.68537341     0.00500
Br409      Br  0.13204621  0.06004957  0.54340020    -0.03900
Br410      Br  0.23877907  0.13092633  0.59278525     0.00600
Br411      Br  0.09331578  0.12808135  0.57465937    -0.03200
Br412      Br  0.14079507  0.10777936  0.66073334    -0.04000
Br413      Br  0.08323733  0.01105442  0.56715822    -0.00100
C414        C  0.61973213  0.07577652  0.49948132     0.01400
C415        C  0.64838396  0.06560707  0.49314821     0.04200
C416        C  0.67216461  0.08546591  0.49212077    -0.11900
C417        C  0.66749107  0.11566481  0.49734354     0.23500
C418        C  0.63860658  0.12603499  0.50201501    -0.12400
C419        C  0.61481336  0.10614372  0.50315892     0.04900
C420        C  0.69324602  0.13569132  0.50116217     0.27300
C421        C  0.70565349  0.13909592  0.52930137    -0.13100
C422        C  0.73146648  0.15575638  0.53309956     0.05400
C423        C  0.74550751  0.16883746  0.50870634    -0.09100
C424        C  0.73268259  0.16606189  0.48061163     0.06200
C425        C  0.70642738  0.14984586  0.47692070    -0.13500
Br426      Br  0.63190559  0.16751174  0.50723539    -0.05500
Br427      Br  0.65529724  0.02423227  0.48707246     0.00100
Br428      Br  0.74810076  0.15999002  0.57184435     0.00500
Br429      Br  0.68917859  0.14577421  0.43850947    -0.03900
Br430      Br  0.57536596  0.12043975  0.50941668     0.00600
Br431      Br  0.71143209  0.07128823  0.48436792    -0.03200
Br432      Br  0.68799850  0.11943519  0.56249121    -0.04000
Br433      Br  0.75266081  0.18189990  0.44676625    -0.00100
C434        C  0.84843496  0.14759728  0.53264773     0.01400
C435        C  0.84785120  0.11787637  0.52340729     0.04200
C436        C  0.86822194  0.09761093  0.53495162    -0.11900
C437        C  0.88999300  0.10707324  0.55471560     0.23500
C438        C  0.89180533  0.13684270  0.56260240    -0.12400
C439        C  0.87072424  0.15696277  0.55230681     0.04900
C440        C  0.90990402  0.08552644  0.56882265     0.27300
C441        C  0.90388544  0.07587069  0.59762110    -0.13100
C442        C  0.92315303  0.05622366  0.61163510     0.05400
C443        C  0.94793529  0.04545785  0.59655476    -0.09100
C444        C  0.95397237  0.05506483  0.56772433     0.06200
C445        C  0.93512685  0.07536114  0.55398600    -0.13500
Br446      Br  0.92307783  0.14975811  0.58823874    -0.05500
Br447      Br  0.82015514  0.10458744  0.49410615     0.00100
Br448      Br  0.91594857  0.04424069  0.65162148     0.00500
Br449      Br  0.94374657  0.08928983  0.51491187    -0.03900
Br450      Br  0.87168801  0.19659209  0.56759959     0.00600
Br451      Br  0.86607693  0.05661985  0.52427998    -0.03200
Br452      Br  0.86897461  0.08935754  0.61767280    -0.04000
Br453      Br  0.98774146  0.03991623  0.54692538    -0.00100
C454        C  0.27779076  0.79520253  0.53629778     0.01400
C455        C  0.30135407  0.79998170  0.55608316     0.04200
C456        C  0.32496897  0.81856477  0.54833242    -0.11900
C457        C  0.32589054  0.83183324  0.52037635     0.23500
C458        C  0.30396591  0.82482809  0.49963362    -0.12400
C459        C  0.27964204  0.80722105  0.50770426     0.04900
C460        C  0.34773386  0.85566525  0.51402663     0.27300
C461        C  0.33985876  0.88523861  0.51906412    -0.13100
C462        C  0.36035048  0.90798016  0.51416108     0.05400
C463        C  0.38887864  0.90151177  0.50375227    -0.09100
C464        C  0.39639970  0.87203832  0.49752205     0.06200
C465        C  0.37608120  0.84916147  0.50313243    -0.13500
Br466      Br  0.30682456  0.84066853  0.46046425    -0.05500
Br467      Br  0.30119043  0.78142242  0.59425235     0.00100
Br468      Br  0.34885778  0.94827746  0.52059626     0.00500
Br469      Br  0.38708900  0.80882165  0.49644850    -0.03900
Br470      Br  0.24747695  0.80267334  0.48051876     0.00600
Br471      Br  0.35544718  0.82712646  0.57652955    -0.03200
Br472      Br  0.30079621  0.89452349  0.53293128    -0.04000
Br473      Br  0.43472376  0.86293484  0.48177999    -0.00100
C474        C  0.19649098  0.79954139  0.60767199     0.01400
C475        C  0.17575530  0.78390600  0.62498448     0.04200
C476        C  0.15414021  0.79923814  0.64099337    -0.11900
C477        C  0.15385326  0.83006016  0.64071663     0.23500
C478        C  0.17775407  0.84541818  0.62861767    -0.12400
C479        C  0.19898452  0.83042850  0.61178235     0.04900
C480        C  0.12624614  0.84640698  0.64671115     0.27300
C481        C  0.10787574  0.85336243  0.62274300    -0.13100
C482        C  0.08475897  0.87347043  0.62621778     0.05400
C483        C  0.07958153  0.88650023  0.65378909    -0.09100
C484        C  0.09637809  0.87778216  0.67832426     0.06200
C485        C  0.11997591  0.85792393  0.67472942    -0.13500
Br486      Br  0.17957498  0.88756965  0.63331428    -0.05500
Br487      Br  0.17662224  0.74150520  0.62713863     0.00100
Br488      Br  0.06167159  0.88508617  0.59251022     0.00500
Br489      Br  0.14486531  0.84791267  0.70746984    -0.03900
Br490      Br  0.22933356  0.85362699  0.59317103     0.00600
Br491      Br  0.12390233  0.77835472  0.66205532    -0.03200
Br492      Br  0.11582224  0.83699475  0.58441698    -0.04000
Br493      Br  0.08755847  0.89391590  0.71636983    -0.00100
C494        C  0.49210782  0.89815451  0.60982596     0.01400
C495        C  0.50526141  0.89911071  0.63785968     0.04200
C496        C  0.50062075  0.87608947  0.65805698    -0.11900
C497        C  0.48373154  0.85136507  0.65009349     0.23500
C498        C  0.47129262  0.84993359  0.62177864    -0.12400
C499        C  0.47523277  0.87333382  0.60180182     0.04900
C500        C  0.47823818  0.82773997  0.67220852     0.27300
C501        C  0.50075775  0.80772117  0.67969140    -0.13100
C502        C  0.49802877  0.78977217  0.70488612     0.05400
C503        C  0.47175084  0.79017310  0.72152356    -0.09100
C504        C  0.44792937  0.80770145  0.71167152     0.06200
C505        C  0.45157898  0.82724648  0.68795561    -0.13500
Br506      Br  0.44832908  0.81611576  0.61065729    -0.05500
Br507      Br  0.52814086  0.93280195  0.64953855     0.00100
Br508      Br  0.53165066  0.76757060  0.71812130     0.00500
Br509      Br  0.42089582  0.85512661  0.67859884    -0.03900
Br510      Br  0.45801933  0.87079833  0.56313901     0.00600
Br511      Br  0.51592514  0.87920424  0.69747402    -0.03200
Br512      Br  0.53601627  0.80628748  0.65614377    -0.04000
Br513      Br  0.41009189  0.80531433  0.73086958    -0.00100
C514        C  0.45070536  0.80534076  0.82582596     0.01400
C515        C  0.46039727  0.83488550  0.82675416     0.04200
C516        C  0.45068700  0.85363166  0.84929933    -0.11900
C517        C  0.43311462  0.84256245  0.87222430     0.23500
C518        C  0.42363349  0.81318127  0.87160706    -0.12400
C519        C  0.43150527  0.79489859  0.84799747     0.04900
C520        C  0.42521543  0.86176232  0.89730109     0.27300
C521        C  0.44638310  0.86808103  0.91898879    -0.13100
C522        C  0.43991248  0.88838656  0.94131387     0.05400
C523        C  0.41168373  0.90123226  0.94293182    -0.09100
C524        C  0.38996089  0.89344691  0.92228015     0.06200
C525        C  0.39695991  0.87441890  0.89901126    -0.13500
Br526      Br  0.40007813  0.79797553  0.90346574    -0.05500
Br527      Br  0.48868236  0.84968656  0.79870725     0.00100
Br528      Br  0.47015882  0.89965109  0.96877976     0.00500
Br529      Br  0.36844418  0.86691994  0.86857266    -0.03900
Br530      Br  0.41419339  0.75627471  0.84562834     0.00600
Br531      Br  0.46129759  0.89471045  0.84887807    -0.03200
Br532      Br  0.48450634  0.84937065  0.91756172    -0.04000
Br533      Br  0.35099723  0.91003077  0.92525362    -0.00100
C534        C  0.50189294  0.08471454  0.61164314     0.01400
C535        C  0.50440694  0.07600627  0.64123261     0.04200
C536        C  0.50482817  0.09726355  0.66368933    -0.11900
C537        C  0.50349440  0.12746795  0.65669135     0.23500
C538        C  0.50127305  0.13618187  0.62702100    -0.12400
C539        C  0.49977504  0.11481668  0.60462119     0.04900
C540        C  0.50337615  0.14964600  0.68084360     0.27300
C541        C  0.47650271  0.16138833  0.69105918    -0.13100
C542        C  0.47584061  0.17875748  0.71667980     0.05400
C543        C  0.50183026  0.18369087  0.73277003    -0.09100
C544        C  0.52885715  0.17311954  0.72184425     0.06200
C545        C  0.52971274  0.15665399  0.69564113    -0.13500
Br546      Br  0.50060638  0.17737124  0.61716859    -0.05500
Br547      Br  0.50615034  0.03478517  0.65105663     0.00100
Br548      Br  0.43913112  0.19470109  0.73070707     0.00500
Br549      Br  0.56673626  0.14218949  0.68080847    -0.03900
Br550      Br  0.49437765  0.12662490  0.56429926     0.00600
Br551      Br  0.50654229  0.08499710  0.70424810    -0.03200
Br552      Br  0.44030835  0.15169740  0.67123990    -0.04000
Br553      Br  0.56436026  0.17921271  0.74416802    -0.00100
C554        C  0.48585476  0.15955102  0.83662940     0.01400
C555        C  0.47051209  0.16773098  0.86266870     0.04200
C556        C  0.46158554  0.14609527  0.88293158    -0.11900
C557        C  0.46604051  0.11617039  0.87676952     0.23500
C558        C  0.48188982  0.10788270  0.85157850    -0.12400
C559        C  0.49292379  0.12944439  0.83232883     0.04900
C560        C  0.45408365  0.09348681  0.89697875     0.27300
C561        C  0.47297411  0.07853502  0.91651387    -0.13100
C562        C  0.46155845  0.05724811  0.93574817     0.05400
C563        C  0.43103741  0.05200040  0.93666114    -0.09100
C564        C  0.41210282  0.06695478  0.91727700     0.06200
C565        C  0.42363791  0.08737164  0.89716112    -0.13500
Br566      Br  0.48814111  0.06672252  0.84328863    -0.05500
Br567      Br  0.45997686  0.20798252  0.87131093     0.00100
Br568      Br  0.48757057  0.03531299  0.96111432     0.00500
Br569      Br  0.39768200  0.10725724  0.87010900    -0.03900
Br570      Br  0.51979025  0.11713770  0.80175209     0.00600
Br571      Br  0.44314234  0.15722574  0.91956896    -0.03200
Br572      Br  0.51428528  0.08809534  0.91776393    -0.04000
Br573      Br  0.37036934  0.05938845  0.91853379    -0.00100
C574        C  0.49342815  0.18537990  0.27421229     0.01400
C575        C  0.51675166  0.16506006  0.27233505     0.04200
C576        C  0.52307959  0.14631691  0.29616143    -0.11900
C577        C  0.50596202  0.14771668  0.32196456     0.23500
C578        C  0.48422946  0.16974217  0.32469871    -0.12400
C579        C  0.47787012  0.18843374  0.30078567     0.04900
C580        C  0.50816399  0.12391740  0.34444926     0.27300
C581        C  0.49332363  0.09715248  0.33973512    -0.13100
C582        C  0.49419894  0.07475727  0.36110618     0.05400
C583        C  0.50962215  0.07903295  0.38767957    -0.09100
C584        C  0.52487024  0.10570378  0.39220244     0.06200
C585        C  0.52425773  0.12798158  0.37056923    -0.13500
Br586      Br  0.46192499  0.17297792  0.36057658    -0.05500
Br587      Br  0.53881420  0.16186647  0.23629034     0.00100
Br588      Br  0.47529225  0.03767044  0.35307763     0.00500
Br589      Br  0.54522606  0.16425672  0.37662967    -0.03900
Br590      Br  0.44628714  0.21663197  0.30348860     0.00600
Br591      Br  0.55398228  0.11745201  0.29286854    -0.03200
Br592      Br  0.47147729  0.09130406  0.30384456    -0.04000
Br593      Br  0.54530252  0.11258591  0.42864772    -0.00100
C594        C  0.39221059  0.06206968  0.08444996     0.01400
C595        C  0.41796267  0.06070186  0.10164230     0.04200
C596        C  0.42371474  0.08259198  0.12244726    -0.11900
C597        C  0.40453656  0.10674726  0.12512047     0.23500
C598        C  0.37884274  0.10831092  0.10790489    -0.12400
C599        C  0.37250848  0.08576660  0.08775342     0.04900
C600        C  0.41322052  0.13146327  0.14425112     0.27300
C601        C  0.40513435  0.13161891  0.17402493    -0.13100
C602        C  0.41747803  0.15238677  0.19324488     0.05400
C603        C  0.43854143  0.17274438  0.18276077    -0.09100
C604        C  0.44563783  0.17318541  0.15240257     0.06200
C605        C  0.43260908  0.15283511  0.13326524    -0.13500
Br606      Br  0.35320810  0.14191406  0.11120898    -0.05500
Br607      Br  0.44674874  0.03026819  0.09482211     0.00100
Br608      Br  0.40492473  0.15285458  0.23376436     0.00500
Br609      Br  0.44241774  0.15298307  0.09194687    -0.03900
Br610      Br  0.33779422  0.08790153  0.06359926     0.00600
Br611      Br  0.45853687  0.08017061  0.14664647    -0.03200
Br612      Br  0.37794794  0.10247113  0.18844660    -0.04000
Br613      Br  0.47520627  0.19934617  0.13658899    -0.00100
C614        C  0.50395617  0.89858188  0.38956069     0.01400
C615        C  0.51725166  0.87085108  0.39384595     0.04200
C616        C  0.51820473  0.85023786  0.37086651    -0.11900
C617        C  0.50598683  0.85721529  0.34337324     0.23500
C618        C  0.49301464  0.88501876  0.33881325    -0.12400
C619        C  0.49188870  0.90563662  0.36185224     0.04900
C620        C  0.50589836  0.83502332  0.31948192     0.27300
C621        C  0.52797056  0.83529268  0.29771740    -0.13100
C622        C  0.52547667  0.81688843  0.27299746     0.05400
C623        C  0.50169280  0.79724899  0.27076255    -0.09100
C624        C  0.48135757  0.79493931  0.29395764     0.06200
C625        C  0.48300694  0.81425423  0.31794847    -0.13500
Br626      Br  0.47712119  0.89486783  0.30075227    -0.05500
Br627      Br  0.53327448  0.86044582  0.43151045     0.00100
Br628      Br  0.55326812  0.81998654  0.24118370     0.00500
Br629      Br  0.45292537  0.81352463  0.34781591    -0.03900
Br630      Br  0.47519067  0.94402304  0.35473847     0.00600
Br631      Br  0.53630347  0.81230564  0.37681337    -0.03200
Br632      Br  0.56086367  0.86169701  0.30136696    -0.04000
Br633      Br  0.45048446  0.76599051  0.29201549    -0.00100
C634        C  0.44218040  0.80659426  0.18249878     0.01400
C635        C  0.44765219  0.81155519  0.15233698     0.04200
C636        C  0.42932358  0.83054000  0.13630188    -0.11900
C637        C  0.40669243  0.84615498  0.15055765     0.23500
C638        C  0.40037251  0.84048267  0.18023047    -0.12400
C639        C  0.41763045  0.82019287  0.19603821     0.04900
C640        C  0.39382325  0.87190393  0.13535188     0.27300
C641        C  0.41054784  0.89783854  0.13424207    -0.13100
C642        C  0.40435560  0.91924101  0.11297492     0.05400
C643        C  0.38044911  0.91541519  0.09351464    -0.09100
C644        C  0.36147675  0.89115260  0.09720644     0.06200
C645        C  0.36843955  0.86913114  0.11787710    -0.13500
Br646      Br  0.36919641  0.86185367  0.19945641    -0.05500
Br647      Br  0.48221027  0.79567986  0.13328386     0.00100
Br648      Br  0.43093541  0.95198519  0.10871604     0.00500
Br649      Br  0.34467028  0.83427550  0.12096991    -0.03900
Br650      Br  0.40733790  0.81124960  0.23618723     0.00600
Br651      Br  0.43652903  0.83706720  0.09497617    -0.03200
Br652      Br  0.44384967  0.90256997  0.16019949    -0.04000
Br653      Br  0.32735428  0.88715948  0.07245408    -0.00100
C654        C  0.91898326  0.37170300  0.50249347     0.01400
C655        C  0.89094054  0.37491107  0.48949829     0.04200
C656        C  0.87046598  0.35160940  0.49002944    -0.11900
C657        C  0.87754179  0.32492031  0.50403436     0.23500
C658        C  0.90510201  0.32193516  0.51800232    -0.12400
C659        C  0.92581496  0.34505571  0.51704828     0.04900
C660        C  0.85708146  0.29922701  0.50228975     0.27300
C661        C  0.83398511  0.29560282  0.52273129    -0.13100
C662        C  0.81709646  0.26950783  0.52284928     0.05400
C663        C  0.82291354  0.24711503  0.50221483    -0.09100
C664        C  0.84453605  0.25182563  0.48048685     0.06200
C665        C  0.86165704  0.27759251  0.48064514    -0.13500
Br666      Br  0.91456631  0.28569674  0.53798633    -0.05500
Br667      Br  0.87983661  0.41172006  0.47206246     0.00100
Br668      Br  0.78782073  0.26333038  0.55285081     0.00500
Br669      Br  0.89254919  0.28266528  0.45203883    -0.03900
Br670      Br  0.96417968  0.33917126  0.53417646     0.00600
Br671      Br  0.83273654  0.35592251  0.47112505    -0.03200
Br672      Br  0.82659334  0.32578342  0.55145669    -0.04000
Br673      Br  0.85141364  0.22217508  0.45101123    -0.00100
C674        C  0.91109840  0.59707509  0.50864560     0.01400
C675        C  0.88603680  0.59169997  0.49103669     0.04200
C676        C  0.86290672  0.61248444  0.48961975    -0.11900
C677        C  0.86446978  0.63869430  0.50596981     0.23500
C678        C  0.88906385  0.64373914  0.52413774    -0.12400
C679        C  0.91234820  0.62322547  0.52532374     0.04900
C680        C  0.84166540  0.66222081  0.50274609     0.27300
C681        C  0.84660837  0.68559046  0.48301005    -0.13100
C682        C  0.82893490  0.71104533  0.48419314     0.05400
C683        C  0.80592072  0.71323102  0.50486255    -0.09100
C684        C  0.79937629  0.68885453  0.52286057     0.06200
C685        C  0.81722022  0.66341277  0.52182984    -0.13500
Br686      Br  0.89118079  0.67956858  0.54672200    -0.05500
Br687      Br  0.88293946  0.55551124  0.46930585     0.00100
Br688      Br  0.83754401  0.74397397  0.45893413     0.00500
Br689      Br  0.80971516  0.63112523  0.54816979    -0.03900
Br690      Br  0.94692796  0.63256318  0.54801638     0.00600
Br691      Br  0.82927588  0.60553309  0.46482310    -0.03200
Br692      Br  0.87922413  0.68355850  0.45597229    -0.04000
Br693      Br  0.76800952  0.69168452  0.55124503    -0.00100
C694        C  0.18905010  0.25060201  0.52441163     0.01400
C695        C  0.17752887  0.25454827  0.49593147     0.04200
C696        C  0.16049070  0.27957397  0.48923637    -0.11900
C697        C  0.15404611  0.30036638  0.51124646     0.23500
C698        C  0.16552266  0.29638716  0.53977522    -0.12400
C699        C  0.18314252  0.27168709  0.54626638     0.04900
C700        C  0.13391247  0.32551969  0.50497768     0.27300
C701        C  0.14528581  0.35398199  0.50038831    -0.13100
C702        C  0.12603678  0.37811572  0.49715510     0.05400
C703        C  0.09536934  0.37376564  0.49734447    -0.09100
C704        C  0.08400396  0.34521101  0.50101019     0.06200
C705        C  0.10318058  0.32118966  0.50501470    -0.13500
Br706      Br  0.15599467  0.32421188  0.57027004    -0.05500
Br707      Br  0.18305348  0.22444162  0.46670435     0.00100
Br708      Br  0.14154661  0.41735704  0.49408796     0.00500
Br709      Br  0.08734159  0.28240117  0.51146782    -0.03900
Br710      Br  0.19884731  0.26638544  0.58524166     0.00600
Br711      Br  0.14516043  0.28500124  0.45011638    -0.03200
Br712      Br  0.18726328  0.35981327  0.49886951    -0.04000
Br713      Br  0.04201979  0.33917095  0.50137555    -0.00100
C714        C  0.10003771  0.60009479  0.50264748     0.01400
C715        C  0.12226378  0.59971565  0.52447319     0.04200
C716        C  0.14153027  0.62378497  0.52778239    -0.11900
C717        C  0.14081760  0.64736338  0.50771444     0.23500
C718        C  0.12163517  0.64584983  0.48343838    -0.12400
C719        C  0.10115420  0.62255937  0.48092742     0.04900
C720        C  0.15837681  0.67466312  0.51351938     0.27300
C721        C  0.14433253  0.69937996  0.52566625    -0.13100
C722        C  0.16049010  0.72493306  0.53230731     0.05400
C723        C  0.19173192  0.72525647  0.52976680    -0.09100
C724        C  0.20567218  0.70059110  0.51661729     0.06200
C725        C  0.18885924  0.67590525  0.50776789    -0.13500
Br726      Br  0.12290191  0.67662299  0.45423665    -0.05500
Br727      Br  0.12880324  0.56506790  0.54812883     0.00100
Br728      Br  0.13864307  0.75980670  0.54322251     0.00500
Br729      Br  0.20747463  0.64332712  0.48805794    -0.03900
Br730      Br  0.07475603  0.62257764  0.44773830     0.00600
Br731      Br  0.16791224  0.62520749  0.56092893    -0.03200
Br732      Br  0.10274402  0.69768088  0.53445585    -0.04000
Br733      Br  0.24783758  0.69905855  0.51201564    -0.00100
C734        C  0.80947287  0.47805562  0.72693044     0.01400
C735        C  0.80940052  0.50164373  0.70691094     0.04200
C736        C  0.82703380  0.50044276  0.68149627    -0.11900
C737        C  0.84533153  0.47591791  0.67642807     0.23500
C738        C  0.84319624  0.45117928  0.69499434    -0.12400
C739        C  0.82513261  0.45221486  0.72014084     0.04900
C740        C  0.86928532  0.47771815  0.65413000     0.27300
C741        C  0.86569254  0.46578026  0.62584598    -0.13100
C742        C  0.88881374  0.46740701  0.60520751     0.05400
C743        C  0.91553129  0.48143674  0.61262771    -0.09100
C744        C  0.91905672  0.49334926  0.64097842     0.06200
C745        C  0.89608214  0.49137253  0.66165405    -0.13500
Br746      Br  0.86641763  0.41664766  0.68689199    -0.05500
Br747      Br  0.78639054  0.53622294  0.71536610     0.00100
Br748      Br  0.88345612  0.45095255  0.56653543     0.00500
Br749      Br  0.90153047  0.50669252  0.70079167    -0.03900
Br750      Br  0.82307958  0.41898421  0.74634401     0.00600
Br751      Br  0.82738846  0.53291913  0.65430561    -0.03200
Br752      Br  0.82904114  0.44718881  0.61557497    -0.04000
Br753      Br  0.95608686  0.51064418  0.65232629    -0.00100
C754        C  0.82838623  0.51488034  0.82621430     0.01400
C755        C  0.85905291  0.50908327  0.82577718     0.04200
C756        C  0.87806286  0.52434044  0.84475660    -0.11900
C757        C  0.86655899  0.54369133  0.86593572     0.23500
C758        C  0.83608148  0.54888429  0.86721974    -0.12400
C759        C  0.81711911  0.53537707  0.84688016     0.04900
C760        C  0.88639646  0.55709088  0.88804296     0.27300
C761        C  0.89733006  0.53968087  0.91120862    -0.13100
C762        C  0.91767622  0.55150387  0.93108669     0.05400
C763        C  0.92552242  0.58142640  0.92925051    -0.09100
C764        C  0.91308827  0.59936889  0.90727684     0.06200
C765        C  0.89452399  0.58692507  0.88593867    -0.13500
Br766      Br  0.82034931  0.57415071  0.89749054    -0.05500
Br767      Br  0.87543560  0.47853643  0.80123055     0.00100
Br768      Br  0.93539988  0.52642476  0.96044948     0.00500
Br769      Br  0.88117225  0.61033523  0.85322951    -0.03900
Br770      Br  0.77609244  0.54668640  0.84709260     0.00600
Br771      Br  0.92012582  0.51866505  0.84203925    -0.03200
Br772      Br  0.88440201  0.49953428  0.91565173    -0.04000
Br773      Br  0.92171848  0.64082673  0.90646637    -0.00100
C774        C  0.21161819  0.49778601  0.71990941     0.01400
C775        C  0.20346458  0.46908194  0.71179253     0.04200
C776        C  0.18612186  0.46444362  0.68653710    -0.11900
C777        C  0.17609347  0.48861889  0.66987664     0.23500
C778        C  0.18653948  0.51699699  0.67648049    -0.12400
C779        C  0.20436951  0.52153370  0.70136782     0.04900
C780        C  0.15161969  0.48507606  0.64831471     0.27300
C781        C  0.15730749  0.48224409  0.61802202    -0.13100
C782        C  0.13376011  0.48163994  0.59777973     0.05400
C783        C  0.10444959  0.48416885  0.60771012    -0.09100
C784        C  0.09876418  0.48586135  0.63806114     0.06200
C785        C  0.12222865  0.48633258  0.65827973    -0.13500
Br786      Br  0.17464425  0.54989182  0.65248623    -0.05500
Br787      Br  0.21370357  0.43654122  0.73693842     0.00100
Br788      Br  0.14157382  0.47761165  0.55640535     0.00500
Br789      Br  0.11417288  0.48915505  0.69979600    -0.03900
Br790      Br  0.21732133  0.56057824  0.71128270     0.00600
Br791      Br  0.17466014  0.42524264  0.67560439    -0.03200
Br792      Br  0.19738689  0.47954173  0.60446698    -0.04000
Br793      Br  0.05867624  0.48697343  0.65193876    -0.00100
C794        C  0.18243042  0.52472042  0.81954518     0.01400
C795        C  0.18076542  0.51046623  0.84708899     0.04200
C796        C  0.16008343  0.51980257  0.86811499    -0.11900
C797        C  0.13950933  0.54190016  0.86095074     0.23500
C798        C  0.13992751  0.55477742  0.83280961    -0.12400
C799        C  0.16205005  0.54715561  0.81263263     0.04900
C800        C  0.11774377  0.55217298  0.88301365     0.27300
C801        C  0.09332318  0.53455290  0.89031470    -0.13100
C802        C  0.07260483  0.54455934  0.91095833     0.05400
C803        C  0.07549540  0.57276844  0.92342308    -0.09100
C804        C  0.09944702  0.59072769  0.91546086     0.06200
C805        C  0.12094929  0.58014193  0.89594774    -0.13500
Br806      Br  0.10988771  0.58280230  0.82186081    -0.05500
Br807      Br  0.20558238  0.47701371  0.85565535     0.00100
Br808      Br  0.04067879  0.51924826  0.92278554     0.00500
Br809      Br  0.15511749  0.60377362  0.88728540    -0.03900
Br810      Br  0.16542150  0.56926811  0.77660147     0.00600
Br811      Br  0.16024949  0.50261506  0.90690013    -0.03200
Br812      Br  0.08810403  0.49678346  0.87183425    -0.04000
Br813      Br  0.10251289  0.63001018  0.93103097    -0.00100
C814        C  0.81167618  0.51784222  0.27326422     0.01400
C815        C  0.81318588  0.53744398  0.29715136     0.04200
C816        C  0.83219477  0.53161166  0.32096209    -0.11900
C817        C  0.84932930  0.50571830  0.32140498     0.23500
C818        C  0.84623588  0.48512841  0.29849439    -0.12400
C819        C  0.82793569  0.49144564  0.27423726     0.04900
C820        C  0.87176735  0.50109113  0.34499459     0.27300
C821        C  0.90150803  0.50835176  0.33982451    -0.13100
C822        C  0.92257333  0.50518019  0.36236041     0.05400
C823        C  0.91401880  0.49542134  0.39049600    -0.09100
C824        C  0.88424112  0.48863286  0.39576759     0.06200
C825        C  0.86334434  0.49068412  0.37292534    -0.13500
Br826      Br  0.86785745  0.44868562  0.30005632    -0.05500
Br827      Br  0.79000244  0.57295272  0.29652113     0.00100
Br828      Br  0.96320428  0.51454025  0.35473754     0.00500
Br829      Br  0.82305755  0.47943820  0.37980101    -0.03900
Br830      Br  0.82663873  0.46491672  0.24134000     0.00600
Br831      Br  0.83600218  0.55983608  0.35228539    -0.03200
Br832      Br  0.91324256  0.52340158  0.30197636    -0.04000
Br833      Br  0.87165090  0.47885472  0.43484764    -0.00100
C834        C  0.82356697  0.57022616  0.18021537     0.01400
C835        C  0.84120267  0.59386931  0.18994868     0.04200
C836        C  0.86182860  0.60679008  0.17081340    -0.11900
C837        C  0.86459378  0.59645504  0.14186497     0.23500
C838        C  0.84561688  0.57439770  0.13148286    -0.12400
C839        C  0.82548522  0.56093608  0.15062413     0.04900
C840        C  0.88981662  0.60538264  0.12329898     0.27300
C841        C  0.88773885  0.62969397  0.10426377    -0.13100
C842        C  0.90967807  0.63444521  0.08291805     0.05400
C843        C  0.93288690  0.61402597  0.07968305    -0.09100
C844        C  0.93561361  0.59054357  0.09988121     0.06200
C845        C  0.91458408  0.58683953  0.12211956    -0.13500
Br846      Br  0.84844637  0.56167651  0.09109771    -0.05500
Br847      Br  0.83709364  0.60894419  0.22932580     0.00100
Br848      Br  0.90752342  0.66828401  0.05752087     0.00500
Br849      Br  0.91869185  0.55525881  0.15023421    -0.03900
Br850      Br  0.80296560  0.52785375  0.13643906     0.00600
Br851      Br  0.88706660  0.63798349  0.18428578    -0.03200
Br852      Br  0.85408872  0.65539968  0.10660344    -0.04000
Br853      Br  0.96662773  0.56170322  0.09590054    -0.00100
C854        C  0.09433025  0.49495258  0.38767291     0.01400
C855        C  0.12391792  0.48771565  0.39349713     0.04200
C856        C  0.14516368  0.48947642  0.37097766    -0.11900
C857        C  0.13704665  0.49908404  0.34267730     0.23500
C858        C  0.10739415  0.50619661  0.33682617    -0.12400
C859        C  0.08608329  0.50386284  0.35918702     0.04900
C860        C  0.15965729  0.50202913  0.31912228     0.27300
C861        C  0.17604776  0.52816358  0.31646921    -0.13100
C862        C  0.19562028  0.53192255  0.29276306     0.05400
C863        C  0.19914593  0.50951480  0.27168238    -0.09100
C864        C  0.18393705  0.48279837  0.27521376     0.06200
C865        C  0.16418777  0.47908112  0.29883587    -0.13500
Br866      Br  0.09606192  0.51937796  0.29816375    -0.05500
Br867      Br  0.13546220  0.47638494  0.43260228     0.00100
Br868      Br  0.21690038  0.56830882  0.28839642     0.00500
Br869      Br  0.14230037  0.44306022  0.30287091    -0.03900
Br870      Br  0.04539763  0.51226476  0.35065670     0.00600
Br871      Br  0.18549053  0.47879801  0.37869023    -0.03200
Br872      Br  0.17072788  0.55925340  0.34472645    -0.04000
Br873      Br  0.18897933  0.45197409  0.24672481    -0.00100
C874        C  0.08063658  0.59806996  0.07421992     0.01400
C875        C  0.08182577  0.57103181  0.08924154     0.04200
C876        C  0.10373250  0.56614040  0.11031687    -0.11900
C877        C  0.12456104  0.58821242  0.11624206     0.23500
C878        C  0.12309248  0.61544025  0.10161438    -0.12400
C879        C  0.10114306  0.62032503  0.08044986     0.04900
C880        C  0.14897098  0.58160944  0.13653435     0.27300
C881        C  0.14612855  0.58780514  0.16654682    -0.13100
C882        C  0.16711670  0.57708162  0.18652108     0.05400
C883        C  0.19032491  0.55863773  0.17661711    -0.09100
C884        C  0.19404563  0.55423480  0.14588633     0.06200
C885        C  0.17358104  0.56619222  0.12605571    -0.13500
Br886      Br  0.15159283  0.64553422  0.11011387    -0.05500
Br887      Br  0.05426382  0.54021792  0.07985193     0.00100
Br888      Br  0.16383106  0.58888433  0.22714053     0.00500
Br889      Br  0.17797120  0.56012315  0.08424463    -0.03900
Br890      Br  0.09957005  0.65694498  0.05920685     0.00600
Br891      Br  0.10585083  0.52887351  0.13056191    -0.03200
Br892      Br  0.11249817  0.60988800  0.18021584    -0.04000
Br893      Br  0.22521135  0.53014037  0.12971716    -0.00100
C894        C  0.48660581  0.26600052  0.20082504     0.01400
C895        C  0.46656485  0.28959984  0.20039312     0.04200
C896        C  0.47086246  0.31329022  0.18092955    -0.11900
C897        C  0.49484640  0.31302023  0.16125913     0.23500
C898        C  0.51572856  0.29010678  0.16278478    -0.12400
C899        C  0.51180530  0.26687235  0.18282331     0.04900
C900        C  0.49764718  0.33618255  0.13831323     0.27300
C901        C  0.48077403  0.33454026  0.11241704    -0.13100
C902        C  0.48403594  0.35594622  0.09025779     0.05400
C903        C  0.50424097  0.37935697  0.09388552    -0.09100
C904        C  0.52118461  0.38075363  0.11989391     0.06200
C905        C  0.51775664  0.35933894  0.14200648    -0.13500
Br906      Br  0.54869511  0.28960028  0.13607554    -0.05500
Br907      Br  0.43243878  0.28845535  0.22550039     0.00100
Br908      Br  0.46183944  0.35165242  0.05431391     0.00500
Br909      Br  0.54032010  0.36175292  0.17782372    -0.03900
Br910      Br  0.53982043  0.23500120  0.18415552     0.00600
Br911      Br  0.44327656  0.34551379  0.18024823    -0.03200
Br912      Br  0.45339672  0.30253807  0.10721246    -0.04000
Br913      Br  0.54829025  0.41255377  0.12636950    -0.00100
C914        C  0.50621999  0.72092227  0.19294564     0.01400
C915        C  0.48928202  0.69521128  0.19548961     0.04200
C916        C  0.49388089  0.67170431  0.17601419    -0.11900
C917        C  0.51527163  0.67397156  0.15373245     0.23500
C918        C  0.53399890  0.69863002  0.15283714    -0.12400
C919        C  0.52953471  0.72204863  0.17258022     0.04900
C920        C  0.51542248  0.65202936  0.12957988     0.27300
C921        C  0.53347634  0.62694405  0.13111493    -0.13100
C922        C  0.53086633  0.60465412  0.10981572     0.05400
C923        C  0.51058541  0.60764369  0.08642177    -0.09100
C924        C  0.49346060  0.63351045  0.08427699     0.06200
C925        C  0.49553001  0.65532200  0.10606458    -0.13500
Br926      Br  0.56423422  0.70116315  0.12326623    -0.05500
Br927      Br  0.45832453  0.69324043  0.22434802     0.00100
Br928      Br  0.55393003  0.56930561  0.11401223     0.00500
Br929      Br  0.47053296  0.68965159  0.10421703    -0.03900
Br930      Br  0.55388066  0.75663813  0.17053945     0.00600
Br931      Br  0.46932256  0.63724880  0.17820215    -0.03200
Br932      Br  0.56115082  0.62293431  0.16297966    -0.04000
Br933      Br  0.46834627  0.64032843  0.05076476    -0.00100
C934        C  0.48566060  0.70872161  0.79469666     0.01400
C935        C  0.51469805  0.70163960  0.80298267     0.04200
C936        C  0.52030239  0.67673404  0.82069843    -0.11900
C937        C  0.49676355  0.65921781  0.83078194     0.23500
C938        C  0.46810837  0.66483072  0.82023963    -0.12400
C939        C  0.46267601  0.68930018  0.80199758     0.04900
C940        C  0.50114508  0.63796615  0.85551338     0.27300
C941        C  0.51025318  0.60874870  0.85042780    -0.13100
C942        C  0.51267928  0.58872738  0.87410698     0.05400
C943        C  0.50542869  0.59764336  0.90288905    -0.09100
C944        C  0.49674315  0.62695016  0.90796991     0.06200
C945        C  0.49492411  0.64706534  0.88447774    -0.13500
Br946      Br  0.43589957  0.64038479  0.83294156    -0.05500
Br947      Br  0.54634221  0.72759461  0.79218488     0.00100
Br948      Br  0.52494232  0.54877333  0.86708778     0.00500
Br949      Br  0.48351168  0.68727008  0.89187406    -0.03900
Br950      Br  0.42332373  0.69752625  0.78845164     0.00600
Br951      Br  0.55987418  0.66784425  0.83304216    -0.03200
Br952      Br  0.51857389  0.59609346  0.81093809    -0.04000
Br953      Br  0.48747630  0.63968264  0.94729875    -0.00100
C954        C  0.73158343  0.47454321  0.80322165     0.01400
C955        C  0.71175863  0.49828295  0.80122113     0.04200
C956        C  0.68625535  0.49874483  0.81874454    -0.11900
C957        C  0.68057952  0.47545346  0.83833073     0.23500
C958        C  0.69860239  0.45020279  0.83775829    -0.12400
C959        C  0.72417104  0.44980779  0.82024404     0.04900
C960        C  0.65838289  0.47921532  0.86204831     0.27300
C961        C  0.66649748  0.49375916  0.88815581    -0.13100
C962        C  0.64599137  0.49720721  0.91106019     0.05400
C963        C  0.61735084  0.48576166  0.90814738    -0.09100
C964        C  0.60917903  0.47135154  0.88201659     0.06200
C965        C  0.62956296  0.46836514  0.85887132    -0.13500
Br966      Br  0.68917676  0.41706588  0.86240385    -0.05500
Br967      Br  0.72092312  0.53123049  0.77620440     0.00100
Br968      Br  0.65764307  0.51652424  0.94691750     0.00500
Br969      Br  0.61807819  0.44980798  0.82265985    -0.03900
Br970      Br  0.74997699  0.41618908  0.82059423     0.00600
Br971      Br  0.66009124  0.53210570  0.81754314    -0.03200
Br972      Br  0.70598065  0.50871218  0.89259894    -0.04000
Br973      Br  0.56975070  0.45646502  0.87767310    -0.00100
C974        C  0.50491101  0.26173154  0.80923192     0.01400
C975        C  0.53185766  0.27585063  0.81492897     0.04200
C976        C  0.53246268  0.30144237  0.83239956    -0.11900
C977        C  0.50615603  0.31265995  0.84448898     0.23500
C978        C  0.47904243  0.29992909  0.83668533    -0.12400
C979        C  0.47844150  0.27475640  0.81881477     0.04900
C980        C  0.50710172  0.33579126  0.86756264     0.27300
C981        C  0.51244121  0.32769194  0.89701227    -0.13100
C982        C  0.51274771  0.34919011  0.91918970     0.05400
C983        C  0.50745670  0.37884205  0.91210546    -0.09100
C984        C  0.50111652  0.38687178  0.88289876     0.06200
C985        C  0.50143300  0.36545595  0.86056023    -0.13500
Br986      Br  0.44285864  0.31574713  0.85223882    -0.05500
Br987      Br  0.56789498  0.25912597  0.80022069     0.00100
Br988      Br  0.51908679  0.33792413  0.95956949     0.00500
Br989      Br  0.49424293  0.37660682  0.82036269    -0.03900
Br990      Br  0.44131647  0.25708952  0.80842511     0.00600
Br991      Br  0.56932469  0.32032998  0.84128237    -0.03200
Br992      Br  0.51884068  0.28695814  0.90700926    -0.04000
Br993      Br  0.49149097  0.42713341  0.87371726    -0.00100
C994        C  0.39924404  0.48857832  0.90684754     0.01400
C995        C  0.37182777  0.47416767  0.90871056     0.04200
C996        C  0.35126138  0.47695069  0.88575100    -0.11900
C997        C  0.35831430  0.49330546  0.86037232     0.23500
C998        C  0.38617066  0.50667565  0.85800707    -0.12400
C999        C  0.40638131  0.50473812  0.88137048     0.04900
C1000       C  0.33544041  0.49846414  0.83751607     0.27300
C1001       C  0.32744642  0.47598637  0.81777567    -0.13100
C1002       C  0.30251649  0.47943400  0.79956309     0.05400
C1003       C  0.28633119  0.50595577  0.80011895    -0.09100
C1004       C  0.29657848  0.52952453  0.81744460     0.06200
C1005       C  0.32022692  0.52544190  0.83689926    -0.13500
Br1006     Br  0.39629160  0.52820310  0.82292117    -0.05500
Br1007     Br  0.36127277  0.45234950  0.94354249     0.00100
Br1008     Br  0.28932168  0.44691270  0.77600623     0.00500
Br1009     Br  0.33012924  0.55603469  0.86451399    -0.03900
Br1010     Br  0.44401466  0.52405485  0.87826109     0.00600
Br1011     Br  0.31263365  0.45980137  0.88981514    -0.03200
Br1012     Br  0.34981238  0.43992924  0.81704546    -0.04000
Br1013     Br  0.27791393  0.56758728  0.81472283    -0.00100
C1014       C  0.39506872  0.49266354  0.09202856     0.01400
C1015       C  0.36606327  0.50157574  0.08555168     0.04200
C1016       C  0.34458421  0.50231059  0.10790069    -0.11900
C1017       C  0.35193596  0.49411600  0.13691219     0.23500
C1018       C  0.38073271  0.48441501  0.14318338    -0.12400
C1019       C  0.40218441  0.48354385  0.12078916     0.04900
C1020       C  0.32966569  0.49720777  0.16085113     0.27300
C1021       C  0.32887470  0.52307908  0.17783706    -0.13100
C1022       C  0.30492878  0.52859029  0.19672196     0.05400
C1023       C  0.28203678  0.50792959  0.19943847    -0.09100
C1024       C  0.28415238  0.48092179  0.18443915     0.06200
C1025       C  0.30782639  0.47561490  0.16507819    -0.13500
Br1026     Br  0.39074239  0.47268653  0.18262094    -0.05500
Br1027     Br  0.35543969  0.51159793  0.04575243     0.00100
Br1028     Br  0.30215959  0.56550962  0.21725058     0.00500
Br1029     Br  0.30944618  0.43960765  0.14290330    -0.03900
Br1030     Br  0.44163444  0.47062278  0.12969801     0.00600
Br1031     Br  0.30501575  0.51477324  0.09883389    -0.03200
Br1032     Br  0.35978136  0.55178583  0.17383199    -0.04000
Br1033     Br  0.25301540  0.45245936  0.18822834    -0.00100
C1034       C  0.72975643  0.52222083  0.19980730     0.01400
C1035       C  0.70976359  0.54464719  0.19181551     0.04200
C1036       C  0.68573960  0.53846928  0.17326948    -0.11900
C1037       C  0.68150542  0.50980998  0.16243461     0.23500
C1038       C  0.70012742  0.48694055  0.17211193    -0.12400
C1039       C  0.72415221  0.49309095  0.19079622     0.04900
C1040       C  0.65918711  0.50442312  0.13898199     0.27300
C1041       C  0.62953366  0.49886168  0.14618879    -0.13100
C1042       C  0.60833966  0.49563794  0.12375810     0.05400
C1043       C  0.61675917  0.49750768  0.09400912    -0.09100
C1044       C  0.64645250  0.50265763  0.08681400     0.06200
C1045       C  0.66754931  0.50627450  0.10918774    -0.13500
Br1046     Br  0.69360772  0.44750716  0.15818574    -0.05500
Br1047     Br  0.71603136  0.58425715  0.20545982     0.00100
Br1048     Br  0.56753835  0.49010597  0.13374106     0.00500
Br1049     Br  0.70785817  0.51483733  0.09907499    -0.03900
Br1050     Br  0.75081328  0.46200098  0.20175785     0.00600
Br1051     Br  0.65951667  0.56960597  0.16117627    -0.03200
Br1052     Br  0.61798626  0.49653439  0.18684527    -0.04000
Br1053     Br  0.65810101  0.50519787  0.04614042    -0.00100
loop_ 
_geom_bond_atom_site_label_1 
_geom_bond_atom_site_label_2 
_geom_bond_distance 
_geom_bond_site_symmetry_2 
_ccdc_geom_bond_type 
C1           N19   1.349       .  A
C1           C38   1.467       .  S
C1          C903   1.491       .  S
N2           N19   1.323       .  A
N2           N24   1.319       .  A
N2          Co39   2.083       .  S
C3           N28   1.342       .  A
C3           C41   1.458       .  S
C3           H48   1.081       .  S
H4           C45   1.081       .  S
C5           N29   1.343       .  A
C5            C9   1.466       .  S
C5           H34   1.081       .  S
Co6          N24   2.095       .  S
Co6          N14   2.103       .  S
Co6          N46   2.090   1_554  S
Co6          N22   2.092   1_554  S
Co6         Cl50   2.462       .  S
N7           C45   1.341       .  A
N7           N14   1.322       .  A
N7           Co8   2.094   1_554  S
Co8          N11   2.084   1_556  S
Co8          N28   2.082       .  S
Co8          N15   2.102       .  S
Co8         Cl50   2.453   1_556  S
C9           N47   1.348       .  A
C9          C923   1.487       .  S
N10          N17   1.321       .  A
N10          N40   1.329       .  A
N10         Co43   2.105   1_554  S
N11          N29   1.320       .  A
N11          N47   1.324       .  A
N12          C41   1.350       .  A
N12          N22   1.326       .  A
H13          C38   1.081       .  S
N14          N35   1.329       .  A
N15          N33   1.321       .  A
N15          N20   1.330       .  A
C16          N20   1.354       .  A
C16          C44   1.459       .  S
C16         C943   1.487       .  S
N17          C32   1.341       .  A
N17         Co39   2.084       .  S
C18          N46   1.342       .  A
C18          C21   1.459       .  S
C18          H52   1.081       .  S
C21          N42   1.349       .  A
C21         C983   1.476       .  S
N22          N28   1.320       .  A
N23          C49   1.341       .  A
N23          N25   1.319       .  A
N23         Co39   2.082   1_556  S
N24          C38   1.344       .  A
N25          N53   1.325       .  A
N25         Co43   2.088       .  S
H26          C49   1.081       .  S
H27          C44   1.081       .  S
N29         Co43   2.096   1_554  S
N30          N42   1.326       .  A
N30          N46   1.321       .  A
N30         Co39   2.088   1_556  S
C31          N35   1.353       .  A
C31          C45   1.457       .  S
C31        C1043   1.482       .  S
C32          C51   1.456       .  S
C32          H36   1.081       .  S
N33          C44   1.342       .  A
N33         Co43   2.096       .  S
C37          N53   1.350       .  A
C37          C49   1.459       .  S
C37         C994   1.480       .  S
Co39        Cl50   2.446       .  S
N40          C51   1.354       .  A
C41         C963   1.478       .  S
Co43        Cl50   2.459   1_556  S
C51        C1014   1.483       .  S
C54          N55   1.367       .  A
C54          N59   1.354       .  A
C54        C1023   1.479       .  S
N55          C56   1.367       .  A
C56          N57   1.356       .  A
C56         C863   1.480       .  S
N57          C58   1.354       .  A
C58          N59   1.351       .  A
C58         C883   1.490       .  S
C60          N61   1.356       .  A
C60          N65   1.368       .  A
C60        C1034   1.487       .  S
N61          C62   1.353       .  A
C62          N63   1.355       .  A
C62         C834   1.482       .  S
N63          C64   1.358       .  A
C64          N65   1.369       .  A
C64         C814   1.484       .  S
C66          N67   1.367       .  A
C66          N71   1.357       .  A
C66         C774   1.479       .  S
N67          C68   1.367       .  A
C68          N69   1.357       .  A
C68        C1003   1.485       .  S
N69          C70   1.352       .  A
C70          N71   1.353       .  A
C70         C794   1.480       .  S
C72          N73   1.358       .  A
C72          N77   1.363       .  A
C72         C734   1.476       .  S
N73          C74   1.356       .  A
C74          N75   1.355       .  A
C74         C754   1.492       .  S
N75          C76   1.357       .  A
C76          N77   1.363       .  A
C76         C954   1.475       .  S
N78          C83   1.349   1_455  A
N78          C82   1.353       .  A
N78         H110   1.039       .  S
N79          C86   1.350       .  A
N79          C87   1.349   1_556  A
N80          C85   1.350   1_455  A
N80          C84   1.349       .  A
N80         H111   1.039       .  S
N81          C88   1.353   1_554  A
N81          C89   1.354       .  A
C82          C90   1.386       .  A
C82          C98   1.415       .  A
C83          C99   1.416       .  A
C83          C91   1.389       .  A
C84          C92   1.387       .  A
C84         C101   1.411       .  A
C85         C100   1.413       .  A
C85          C93   1.387       .  A
C86          C98   1.411       .  A
C86          C94   1.386       .  A
C87         C101   1.411       .  A
C87          C95   1.387       .  A
C88          C96   1.386       .  A
C88          C99   1.418       .  A
C89          C97   1.386       .  A
C89         C100   1.418       .  A
C90         H102   1.082       .  S
C90          C91   1.376   1_455  A
C91         H103   1.081       .  S
C92         H104   1.082       .  S
C92          C93   1.377   1_455  A
C93         H105   1.082       .  S
C94         H106   1.082       .  S
C94          C95   1.371   1_556  A
C95         H107   1.082       .  S
C96         H108   1.082       .  S
C96          C97   1.372   1_556  A
C97         H109   1.082       .  S
C98         C803   1.490       .  S
C99         C763   1.487       .  S
C100        C843   1.494       .  S
C101        C874   1.478       .  S
C112        N130   1.352       .  A
C112        C149   1.457       .  S
C112        C854   1.481       .  S
N113        N130   1.328       .  A
N113        N135   1.322       .  A
N113       Co150   2.104       .  S
C114        N139   1.344       .  A
C114        C152   1.465       .  S
C114        H159   1.081       .  S
H115        C156   1.081       .  S
C116        N140   1.343       .  A
C116        C120   1.457       .  S
C116        H145   1.081       .  S
Co117       N135   2.087       .  S
Co117       N125   2.098       .  S
Co117       N157   2.087   1_455  S
Co117       N133   2.100   1_455  S
Co117      Cl161   2.452       .  S
N118        C156   1.344       .  A
N118        N125   1.319       .  A
N118       Co119   2.105       .  S
Co119       N122   2.105       .  S
Co119       N139   2.098   1_455  S
Co119       N126   2.104   1_455  S
Co119      Cl161   2.467       .  S
C120        N158   1.354       .  A
C120        C783   1.484       .  S
N121        N128   1.321       .  A
N121        N151   1.324       .  A
N121       Co154   2.078       .  S
N122        N140   1.321       .  A
N122        N158   1.329       .  A
N123        C152   1.353       .  A
N123        N133   1.328       .  A
H124        C149   1.082       .  S
N125        N146   1.329       .  A
N126        N144   1.321       .  A
N126        N131   1.328       .  A
C127        N131   1.354       .  A
C127        C155   1.456       .  S
C127        C743   1.485       .  S
N128        C143   1.346       .  A
N128       Co150   2.106       .  S
C129        N157   1.341       .  A
C129        C132   1.456       .  S
C129        H163   1.081       .  S
C132        N153   1.356       .  A
C132        C823   1.487       .  S
N133        N139   1.321       .  A
N134        C160   1.347       .  A
N134        N136   1.322       .  A
N134       Co150   2.108   1_655  S
N135        C149   1.341       .  A
N136        N164   1.328       .  A
N136       Co154   2.096   1_655  S
H137        C160   1.081       .  S
H138        C155   1.081       .  S
N140       Co154   2.092       .  S
N141        N153   1.330       .  A
N141        N157   1.322       .  A
N141       Co150   2.113   1_655  S
C142        N146   1.354       .  A
C142        C156   1.471       .  S
C142        C714   1.508       .  S
C143        C162   1.466       .  S
C143        H147   1.081       .  S
N144        C155   1.340       .  A
N144       Co154   2.080   1_655  S
C148        N164   1.352       .  A
C148        C160   1.468       .  S
C148        C654   1.497       .  S
Co150      Cl161   2.465       .  S
N151        C162   1.347       .  A
C152        C674   1.494       .  S
Co154      Cl161   2.451       .  S
C162        C703   1.479       .  S
C165        N166   1.364       .  A
C165        N170   1.355       .  A
C165        C623   1.471       .  S
N166        C167   1.364       .  A
C167        N168   1.357       .  A
C167        C914   1.473       .  S
N168        C169   1.354       .  A
C169        N170   1.352       .  A
C169        C634   1.481       .  S
C171        N172   1.354       .  A
C171        N176   1.364       .  A
C171        C894   1.473       .  S
N172        C173   1.351       .  A
C173        N174   1.356       .  A
C173        C603   1.484       .  S
N174        C175   1.358       .  A
C175        N176   1.365       .  A
C175        C574   1.477       .  S
C177        N178   1.357       .  A
C177        N182   1.365       .  A
C177        C974   1.479       .  S
N178        C179   1.354       .  A
C179        N180   1.357       .  A
C179        C554   1.499       .  S
N180        C181   1.358       .  A
C181        N182   1.365       .  A
C181        C543   1.481       .  S
C183        N184   1.369       .  A
C183        N188   1.358       .  A
C183        C503   1.492       .  S
N184        C185   1.368       .  A
C185        N186   1.357       .  A
C185        C934   1.482       .  S
N186        C187   1.353       .  A
C187        N188   1.353       .  A
C187        C514   1.485       .  S
N189        C194   1.353       .  A
N189        C193   1.353   1_554  A
N189        H221   1.035       .  S
N190        C197   1.352   1_565  A
N190        C198   1.351       .  A
N191        C196   1.355       .  A
N191        C195   1.355   1_554  A
N191        H222   1.036       .  S
N192        C199   1.350   1_565  A
N192        C200   1.350       .  A
C193        C201   1.387       .  A
C193        C209   1.415       .  A
C194        C210   1.416       .  A
C194        C202   1.388       .  A
C195        C203   1.385   1_556  A
C195        C212   1.417       .  A
C196        C211   1.423       .  A
C196        C204   1.389       .  A
C197        C209   1.412       .  A
C197        C205   1.385   1_545  A
C198        C212   1.416       .  A
C198        C206   1.388       .  A
C199        C207   1.386       .  A
C199        C210   1.412       .  A
C200        C208   1.387       .  A
C200        C211   1.413       .  A
C201        H213   1.082       .  S
C201        C202   1.371   1_556  A
C202        H214   1.082       .  S
C203        H215   1.082   1_554  S
C203        C204   1.373       .  A
C204        H216   1.081       .  S
C205        H217   1.082   1_565  S
C205        C206   1.369       .  A
C206        H218   1.082       .  S
C207        H219   1.082       .  S
C207        C208   1.374   1_545  A
C208        H220   1.082       .  S
C209        C563   1.487       .  S
C210        C594   1.486       .  S
C211        C643   1.494       .  S
C212        C523   1.490       .  S
C223        N224   1.357       .  A
C223        N228   1.370       .  A
C223        C723   1.511       .  S
N224        C225   1.354       .  A
C225        N226   1.353       .  A
C225        C474   1.497       .  S
N226        C227   1.359       .  A
C227        N228   1.371       .  A
C227        C454   1.496       .  S
C229        N230   1.370       .  A
C229        N234   1.358       .  A
C229        C423   1.487       .  S
N230        C231   1.368       .  A
C231        N232   1.355       .  A
C231        C663   1.486       .  S
N232        C233   1.352       .  A
C233        N234   1.354       .  A
C233        C434   1.485       .  S
C235        N236   1.364       .  A
C235        N240   1.359       .  A
C235        C694   1.480       .  S
N236        C237   1.362       .  A
C237        N238   1.356       .  A
C237        C383   1.475       .  S
N238        C239   1.354       .  A
C239        N240   1.358       .  A
C239        C394   1.495       .  S
C241        N242   1.357       .  A
C241        N246   1.368       .  A
C241        C343   1.482       .  S
N242        C243   1.354       .  A
C243        N244   1.353       .  A
C243        C354   1.480       .  S
N244        C245   1.355       .  A
C245        N246   1.368       .  A
C245        C683   1.483       .  S
N247        C252   1.352       .  A
N247        C251   1.352       .  A
N247        H279   1.038       .  S
N248        C255   1.351   1_455  A
N248        C256   1.350       .  A
N249        C254   1.356       .  A
N249        C253   1.355       .  A
N249        H280   1.038       .  S
N250        C257   1.350   1_455  A
N250        C258   1.348       .  A
C251        C259   1.389       .  A
C251        C267   1.414       .  A
C252        C268   1.411   1_565  A
C252        C260   1.386       .  A
C253        C261   1.389       .  A
C253        C270   1.421       .  A
C254        C269   1.417   1_565  A
C254        C262   1.385       .  A
C255        C267   1.413       .  A
C255        C263   1.386       .  A
C256        C270   1.413       .  A
C256        C264   1.386       .  A
C257        C265   1.385   1_655  A
C257        C268   1.408       .  A
C258        C266   1.388       .  A
C258        C269   1.410       .  A
C259        H271   1.082       .  S
C259        C260   1.371       .  A
C260        H272   1.082       .  S
C261        H273   1.082       .  S
C261        C262   1.373       .  A
C262        H274   1.082       .  S
C263        H275   1.082       .  S
C263        C264   1.374   1_655  A
C264        H276   1.082       .  S
C265        H277   1.082   1_455  S
C265        C266   1.371       .  A
C266        H278   1.082       .  S
C267        C363   1.488       .  S
C268        C443   1.484       .  S
C269        C403   1.489       .  S
C270        C483   1.489       .  S
C281        N299   1.353       .  A
C281        C318   1.458       .  S
C281        C614   1.483       .  S
N282        N299   1.327       .  A
N282        N304   1.321       .  A
N282       Co319   2.096       .  S
C283        N308   1.347       .  A
C283        C321   1.466       .  S
C283        H328   1.081       .  S
H284        C325   1.081       .  S
C285        N309   1.339       .  A
C285        C289   1.455       .  S
C285        H314   1.081       .  S
Co286       N304   2.084       .  S
Co286       N294   2.099       .  S
Co286       N326   2.095   1_565  S
Co286       N302   2.086   1_565  S
Co286      Cl330   2.452       .  S
N287        C325   1.343       .  A
N287        N294   1.321       .  A
N287       Co288   2.090       .  S
Co288       N291   2.108       .  S
Co288       N308   2.109   1_565  S
Co288       N295   2.097   1_565  S
Co288      Cl330   2.461       .  S
C289        N327   1.355       .  A
C289        C494   1.486       .  S
N290        N297   1.321       .  A
N290        N320   1.327       .  A
N290       Co323   2.097       .  S
N291        N309   1.321       .  A
N291        N327   1.329       .  A
N292        C321   1.348       .  A
N292        N302   1.326       .  A
H293        C318   1.082       .  S
N294        N315   1.327       .  A
N295        N313   1.321       .  A
N295        N300   1.327       .  A
C296        N300   1.352       .  A
C296        C324   1.458       .  S
C296        C534   1.481       .  S
N297        C312   1.348       .  A
N297       Co319   2.105       .  S
C298        N326   1.344       .  A
C298        C301   1.463       .  S
C298        H332   1.081       .  S
C301        N322   1.352       .  A
C301        C583   1.489       .  S
N302        N308   1.322       .  A
N303        C329   1.345       .  A
N303        N305   1.320       .  A
N303       Co319   2.098   1_545  S
N304        C318   1.340       .  A
N305        N333   1.324       .  A
N305       Co323   2.079   1_545  S
H306        C329   1.081       .  S
H307        C324   1.081       .  S
N309       Co323   2.078       .  S
N310        N322   1.326       .  A
N310        N326   1.321       .  A
N310       Co319   2.095   1_545  S
C311        N315   1.352       .  A
C311        C325   1.459       .  S
C311        C334   1.482       .  S
C312        C331   1.466       .  S
C312        H316   1.081       .  S
N313        C324   1.343       .  A
N313       Co323   2.091   1_545  S
C317        N333   1.348       .  A
C317        C329   1.462       .  S
C317        C374   1.476       .  S
Co319      Cl330   2.461       .  S
N320        C331   1.351       .  A
C321        C414   1.486       .  S
Co323      Cl330   2.453       .  S
C331        C463   1.492       .  S
C334        C335   1.409       .  A
C334        C339   1.409       .  A
C335        C336   1.410       .  A
C335       Br347   1.929       .  S
C336        C337   1.412       .  A
C336       Br351   1.930       .  S
C337        C340   1.494       .  S
C337        C338   1.410       .  A
C338        C339   1.411       .  A
C338       Br346   1.927       .  S
C339       Br350   1.925       .  S
C340        C341   1.411       .  A
C340        C345   1.410       .  A
C341        C342   1.412       .  A
C341       Br352   1.928       .  S
C342        C343   1.410       .  A
C342       Br348   1.928       .  S
C343        C344   1.411       .  A
C344        C345   1.410       .  A
C344       Br353   1.929       .  S
C345       Br349   1.929       .  S
C354        C355   1.416       .  A
C354        C359   1.414       .  A
C355        C356   1.406       .  A
C355       Br367   1.934       .  S
C356        C357   1.406       .  A
C356       Br371   1.930       .  S
C357        C360   1.480       .  S
C357        C358   1.408       .  A
C358        C359   1.406       .  A
C358       Br366   1.932       .  S
C359       Br370   1.933       .  S
C360        C361   1.408       .  A
C360        C365   1.408       .  A
C361        C362   1.407       .  A
C361       Br372   1.928       .  S
C362        C363   1.411       .  A
C362       Br368   1.929       .  S
C363        C364   1.410       .  A
C364        C365   1.403       .  A
C364       Br373   1.930       .  S
C365       Br369   1.932       .  S
C374        C375   1.410       .  A
C374        C379   1.408       .  A
C375        C376   1.412       .  A
C375       Br387   1.928       .  S
C376        C377   1.410       .  A
C376       Br391   1.927       .  S
C377        C380   1.487       .  S
C377        C378   1.411       .  A
C378        C379   1.405       .  A
C378       Br386   1.931       .  S
C379       Br390   1.931       .  S
C380        C381   1.410       .  A
C380        C385   1.410       .  A
C381        C382   1.408       .  A
C381       Br392   1.929       .  S
C382        C383   1.409       .  A
C382       Br388   1.930       .  S
C383        C384   1.408       .  A
C384        C385   1.409       .  A
C384       Br393   1.926       .  S
C385       Br389   1.929       .  S
C394        C395   1.421       .  A
C394        C399   1.423       .  A
C395        C396   1.407       .  A
C395       Br407   1.935       .  S
C396        C397   1.407       .  A
C396       Br411   1.934       .  S
C397        C400   1.486       .  S
C397        C398   1.405       .  A
C398        C399   1.409       .  A
C398       Br406   1.932       .  S
C399       Br410   1.933       .  S
C400        C401   1.411       .  A
C400        C405   1.410       .  A
C401        C402   1.408       .  A
C401       Br412   1.928       .  S
C402        C403   1.408       .  A
C402       Br408   1.927       .  S
C403        C404   1.411       .  A
C404        C405   1.404       .  A
C404       Br413   1.932       .  S
C405       Br409   1.931       .  S
C414        C415   1.411       .  A
C414        C419   1.410       .  A
C415        C416   1.411       .  A
C415       Br427   1.929       .  S
C416        C417   1.411       .  A
C416       Br431   1.930       .  S
C417        C420   1.496       .  S
C417        C418   1.411       .  A
C418        C419   1.413       .  A
C418       Br426   1.927       .  S
C419       Br430   1.928       .  S
C420        C421   1.410       .  A
C420        C425   1.412       .  A
C421        C422   1.409       .  A
C421       Br432   1.931       .  S
C422        C423   1.413       .  A
C422       Br428   1.930       .  S
C423        C424   1.412       .  A
C424        C425   1.415       .  A
C424       Br433   1.929       .  S
C425       Br429   1.927       .  S
C434        C435   1.418       .  A
C434        C439   1.419       .  A
C435        C436   1.407       .  A
C435       Br447   1.934       .  S
C436        C437   1.407       .  A
C436       Br451   1.932       .  S
C437        C440   1.480       .  S
C437        C438   1.405       .  A
C438        C439   1.405       .  A
C438       Br446   1.933       .  S
C439       Br450   1.935       .  S
C440        C441   1.410       .  A
C440        C445   1.409       .  A
C441        C442   1.404       .  A
C441       Br452   1.931       .  S
C442        C443   1.407       .  A
C442       Br448   1.929       .  S
C443        C444   1.411       .  A
C444        C445   1.405       .  A
C444       Br453   1.930       .  S
C445       Br449   1.929       .  S
C454        C455   1.417       .  A
C454        C459   1.415       .  A
C455        C456   1.412       .  A
C455       Br467   1.932       .  S
C456        C457   1.409       .  A
C456       Br471   1.930       .  S
C457        C460   1.500       .  S
C457        C458   1.411       .  A
C458        C459   1.415       .  A
C458       Br466   1.928       .  S
C459       Br470   1.928       .  S
C460        C461   1.411       .  A
C460        C465   1.412       .  A
C461        C462   1.411       .  A
C461       Br472   1.931       .  S
C462        C463   1.411       .  A
C462       Br468   1.929       .  S
C463        C464   1.413       .  A
C464        C465   1.416       .  A
C464       Br473   1.928       .  S
C465       Br469   1.927       .  S
C474        C475   1.420       .  A
C474        C479   1.424       .  A
C475        C476   1.408       .  A
C475       Br487   1.933       .  S
C476        C477   1.403       .  A
C476       Br491   1.928       .  S
C477        C480   1.483       .  S
C477        C478   1.405       .  A
C478        C479   1.408       .  A
C478       Br486   1.933       .  S
C479       Br490   1.934       .  S
C480        C481   1.410       .  A
C480        C485   1.409       .  A
C481        C482   1.401       .  A
C481       Br492   1.933       .  S
C482        C483   1.409       .  A
C482       Br488   1.933       .  S
C483        C484   1.410       .  A
C484        C485   1.411       .  A
C484       Br493   1.925       .  S
C485       Br489   1.926       .  S
C494        C495   1.411       .  A
C494        C499   1.415       .  A
C495        C496   1.410       .  A
C495       Br507   1.930       .  S
C496        C497   1.412       .  A
C496       Br511   1.931       .  S
C497        C500   1.494       .  S
C497        C498   1.410       .  A
C498        C499   1.412       .  A
C498       Br506   1.930       .  S
C499       Br510   1.931       .  S
C500        C501   1.411       .  A
C500        C505   1.408       .  A
C501        C502   1.413       .  A
C501       Br512   1.929       .  S
C502        C503   1.415       .  A
C502       Br508   1.927       .  S
C503        C504   1.417       .  A
C504        C505   1.409       .  A
C504       Br513   1.933       .  S
C505       Br509   1.931       .  S
C514        C515   1.417       .  A
C514        C519   1.417       .  A
C515        C516   1.407       .  A
C515       Br527   1.934       .  S
C516        C517   1.408       .  A
C516       Br531   1.932       .  S
C517        C520   1.483       .  S
C517        C518   1.406       .  A
C518        C519   1.407       .  A
C518       Br526   1.932       .  S
C519       Br530   1.931       .  S
C520        C521   1.410       .  A
C520        C525   1.409       .  A
C521        C522   1.406       .  A
C521       Br532   1.931       .  S
C522        C523   1.411       .  A
C522       Br528   1.930       .  S
C523        C524   1.410       .  A
C524        C525   1.406       .  A
C524       Br533   1.929       .  S
C525       Br529   1.930       .  S
C534        C535   1.409       .  A
C534        C539   1.410       .  A
C535        C536   1.409       .  A
C535       Br547   1.930       .  S
C536        C537   1.412       .  A
C536       Br551   1.931       .  S
C537        C540   1.494       .  S
C537        C538   1.412       .  A
C538        C539   1.412       .  A
C538       Br546   1.928       .  S
C539       Br550   1.929       .  S
C540        C541   1.412       .  A
C540        C545   1.411       .  A
C541        C542   1.411       .  A
C541       Br552   1.929       .  S
C542        C543   1.409       .  A
C542       Br548   1.928       .  S
C543        C544   1.410       .  A
C544        C545   1.411       .  A
C544       Br553   1.929       .  S
C545       Br549   1.929       .  S
C554        C555   1.425       .  A
C554        C559   1.421       .  A
C555        C556   1.409       .  A
C555       Br567   1.934       .  S
C556        C557   1.406       .  A
C556       Br571   1.935       .  S
C557        C560   1.486       .  S
C557        C558   1.406       .  A
C558        C559   1.408       .  A
C558       Br566   1.932       .  S
C559       Br570   1.935       .  S
C560        C561   1.410       .  A
C560        C565   1.412       .  A
C561        C562   1.405       .  A
C561       Br572   1.929       .  S
C562        C563   1.409       .  A
C562       Br568   1.930       .  S
C563        C564   1.407       .  A
C564        C565   1.406       .  A
C564       Br573   1.930       .  S
C565       Br569   1.930       .  S
C574        C575   1.408       .  A
C574        C579   1.409       .  A
C575        C576   1.409       .  A
C575       Br587   1.929       .  S
C576        C577   1.411       .  A
C576       Br591   1.928       .  S
C577        C580   1.493       .  S
C577        C578   1.412       .  A
C578        C579   1.411       .  A
C578       Br586   1.929       .  S
C579       Br590   1.928       .  S
C580        C581   1.411       .  A
C580        C585   1.410       .  A
C581        C582   1.409       .  A
C581       Br592   1.932       .  S
C582        C583   1.413       .  A
C582       Br588   1.931       .  S
C583        C584   1.415       .  A
C584        C585   1.413       .  A
C584       Br593   1.929       .  S
C585       Br589   1.929       .  S
C594        C595   1.410       .  A
C594        C599   1.409       .  A
C595        C596   1.401       .  A
C595       Br607   1.929       .  S
C596        C597   1.407       .  A
C596       Br611   1.932       .  S
C597        C600   1.479       .  S
C597        C598   1.409       .  A
C598        C599   1.408       .  A
C598       Br606   1.927       .  S
C599       Br610   1.926       .  S
C600        C601   1.405       .  A
C600        C605   1.405       .  A
C601        C602   1.407       .  A
C601       Br612   1.929       .  S
C602        C603   1.416       .  A
C602       Br608   1.932       .  S
C603        C604   1.420       .  A
C604        C605   1.405       .  A
C604       Br613   1.936       .  S
C605       Br609   1.934       .  S
C614        C615   1.412       .  A
C614        C619   1.413       .  A
C615        C616   1.407       .  A
C615       Br627   1.922       .  S
C616        C617   1.406       .  A
C616       Br631   1.930       .  S
C617        C620   1.486       .  S
C617        C618   1.410       .  A
C618        C619   1.410       .  A
C618       Br626   1.930       .  S
C619       Br630   1.931       .  S
C620        C621   1.410       .  A
C620        C625   1.409       .  A
C621        C622   1.409       .  A
C621       Br632   1.928       .  S
C622        C623   1.408       .  A
C622       Br628   1.927       .  S
C623        C624   1.408       .  A
C624        C625   1.406       .  A
C624       Br633   1.929       .  S
C625       Br629   1.929       .  S
C634        C635   1.414       .  A
C634        C639   1.417       .  A
C635        C636   1.404       .  A
C635       Br647   1.934       .  S
C636        C637   1.408       .  A
C636       Br651   1.933       .  S
C637        C640   1.480       .  S
C637        C638   1.405       .  A
C638        C639   1.408       .  A
C638       Br646   1.928       .  S
C639       Br650   1.931       .  S
C640        C641   1.406       .  A
C640        C645   1.408       .  A
C641        C642   1.401       .  A
C641       Br652   1.934       .  S
C642        C643   1.414       .  A
C642       Br648   1.930       .  S
C643        C644   1.412       .  A
C644        C645   1.410       .  A
C644       Br653   1.927       .  S
C645       Br649   1.926       .  S
C654        C655   1.413       .  A
C654        C659   1.416       .  A
C655        C656   1.413       .  A
C655       Br667   1.920       .  S
C656        C657   1.408       .  A
C656       Br671   1.929       .  S
C657        C660   1.498       .  S
C657        C658   1.412       .  A
C658        C659   1.414       .  A
C658       Br666   1.931       .  S
C659       Br670   1.929       .  S
C660        C661   1.413       .  A
C660        C665   1.410       .  A
C661        C662   1.416       .  A
C661       Br672   1.928       .  S
C662        C663   1.412       .  A
C662       Br668   1.928       .  S
C663        C664   1.411       .  A
C664        C665   1.409       .  A
C664       Br673   1.930       .  S
C665       Br669   1.929       .  S
C674        C675   1.415       .  A
C674        C679   1.414       .  A
C675        C676   1.415       .  A
C675       Br687   1.929       .  S
C676        C677   1.409       .  A
C676       Br691   1.928       .  S
C677        C680   1.496       .  S
C677        C678   1.411       .  A
C678        C679   1.411       .  A
C678       Br686   1.932       .  S
C679       Br690   1.930       .  S
C680        C681   1.410       .  A
C680        C685   1.412       .  A
C681        C682   1.410       .  A
C681       Br692   1.929       .  S
C682        C683   1.411       .  A
C682       Br688   1.929       .  S
C683        C684   1.411       .  A
C684        C685   1.414       .  A
C684       Br693   1.929       .  S
C685       Br689   1.927       .  S
C694        C695   1.410       .  A
C694        C699   1.409       .  A
C695        C696   1.409       .  A
C695       Br707   1.928       .  S
C696        C697   1.410       .  A
C696       Br711   1.929       .  S
C697        C700   1.492       .  S
C697        C698   1.412       .  A
C698        C699   1.410       .  A
C698       Br706   1.930       .  S
C699       Br710   1.929       .  S
C700        C701   1.411       .  A
C700        C705   1.411       .  A
C701        C702   1.411       .  A
C701       Br712   1.928       .  S
C702        C703   1.408       .  A
C702       Br708   1.927       .  S
C703        C704   1.409       .  A
C704        C705   1.409       .  A
C704       Br713   1.929       .  S
C705       Br709   1.930       .  S
C714        C715   1.418       .  A
C714        C719   1.423       .  A
C715        C716   1.412       .  A
C715       Br727   1.932       .  S
C716        C717   1.409       .  A
C716       Br731   1.930       .  S
C717        C720   1.502       .  S
C717        C718   1.410       .  A
C718        C719   1.417       .  A
C718       Br726   1.931       .  S
C719       Br730   1.931       .  S
C720        C721   1.407       .  A
C720        C725   1.411       .  A
C721        C722   1.410       .  A
C721       Br732   1.934       .  S
C722        C723   1.425       .  A
C722       Br728   1.936       .  S
C723        C724   1.421       .  A
C724        C725   1.419       .  A
C724       Br733   1.929       .  S
C725       Br729   1.929       .  S
C734        C735   1.408       .  A
C734        C739   1.409       .  A
C735        C736   1.409       .  A
C735       Br747   1.928       .  S
C736        C737   1.410       .  A
C736       Br751   1.927       .  S
C737        C740   1.491       .  S
C737        C738   1.411       .  A
C738        C739   1.410       .  A
C738       Br746   1.928       .  S
C739       Br750   1.928       .  S
C740        C741   1.409       .  A
C740        C745   1.411       .  A
C741        C742   1.412       .  A
C741       Br752   1.928       .  S
C742        C743   1.415       .  A
C742       Br748   1.931       .  S
C743        C744   1.411       .  A
C744        C745   1.409       .  A
C744       Br753   1.931       .  S
C745       Br749   1.932       .  S
C754        C755   1.418       .  A
C754        C759   1.421       .  A
C755        C756   1.408       .  A
C755       Br767   1.934       .  S
C756        C757   1.407       .  A
C756       Br771   1.933       .  S
C757        C760   1.485       .  S
C757        C758   1.406       .  A
C758        C759   1.409       .  A
C758       Br766   1.933       .  S
C759       Br770   1.934       .  S
C760        C761   1.409       .  A
C760        C765   1.411       .  A
C761        C762   1.403       .  A
C761       Br772   1.931       .  S
C762        C763   1.411       .  A
C762       Br768   1.932       .  S
C763        C764   1.409       .  A
C764        C765   1.408       .  A
C764       Br773   1.929       .  S
C765       Br769   1.928       .  S
C774        C775   1.409       .  A
C774        C779   1.410       .  A
C775        C776   1.411       .  A
C775       Br787   1.928       .  S
C776        C777   1.411       .  A
C776       Br791   1.926       .  S
C777        C780   1.493       .  S
C777        C778   1.410       .  A
C778        C779   1.410       .  A
C778       Br786   1.929       .  S
C779       Br790   1.928       .  S
C780        C781   1.410       .  A
C780        C785   1.412       .  A
C781        C782   1.413       .  A
C781       Br792   1.927       .  S
C782        C783   1.412       .  A
C782       Br788   1.927       .  S
C783        C784   1.409       .  A
C784        C785   1.410       .  A
C784       Br793   1.929       .  S
C785       Br789   1.931       .  S
C794        C795   1.414       .  A
C794        C799   1.413       .  A
C795        C796   1.408       .  A
C795       Br807   1.933       .  S
C796        C797   1.410       .  A
C796       Br811   1.931       .  S
C797        C800   1.486       .  S
C797        C798   1.409       .  A
C798        C799   1.406       .  A
C798       Br806   1.932       .  S
C799       Br810   1.930       .  S
C800        C801   1.410       .  A
C800        C805   1.412       .  A
C801        C802   1.406       .  A
C801       Br812   1.931       .  S
C802        C803   1.411       .  A
C802       Br808   1.931       .  S
C803        C804   1.410       .  A
C804        C805   1.406       .  A
C804       Br813   1.930       .  S
C805       Br809   1.931       .  S
C814        C815   1.410       .  A
C814        C819   1.410       .  A
C815        C816   1.412       .  A
C815       Br827   1.928       .  S
C816        C817   1.412       .  A
C816       Br831   1.930       .  S
C817        C820   1.496       .  S
C817        C818   1.411       .  A
C818        C819   1.412       .  A
C818       Br826   1.928       .  S
C819       Br830   1.927       .  S
C820        C821   1.412       .  A
C820        C825   1.410       .  A
C821        C822   1.411       .  A
C821       Br832   1.930       .  S
C822        C823   1.411       .  A
C822       Br828   1.928       .  S
C823        C824   1.410       .  A
C824        C825   1.412       .  A
C824       Br833   1.922       .  S
C825       Br829   1.928       .  S
C834        C835   1.415       .  A
C834        C839   1.416       .  A
C835        C836   1.409       .  A
C835       Br847   1.930       .  S
C836        C837   1.406       .  A
C836       Br851   1.928       .  S
C837        C840   1.482       .  S
C837        C838   1.408       .  A
C838        C839   1.405       .  A
C838       Br846   1.934       .  S
C839       Br850   1.935       .  S
C840        C841   1.408       .  A
C840        C845   1.407       .  A
C841        C842   1.409       .  A
C841       Br852   1.927       .  S
C842        C843   1.413       .  A
C842       Br848   1.928       .  S
C843        C844   1.415       .  A
C844        C845   1.403       .  A
C844       Br853   1.933       .  S
C845       Br849   1.933       .  S
C854        C855   1.409       .  A
C854        C859   1.410       .  A
C855        C856   1.411       .  A
C855       Br867   1.927       .  S
C856        C857   1.410       .  A
C856       Br871   1.928       .  S
C857        C860   1.492       .  S
C857        C858   1.411       .  A
C858        C859   1.410       .  A
C858       Br866   1.930       .  S
C859       Br870   1.928       .  S
C860        C861   1.410       .  A
C860        C865   1.411       .  A
C861        C862   1.409       .  A
C861       Br872   1.929       .  S
C862        C863   1.411       .  A
C862       Br868   1.930       .  S
C863        C864   1.409       .  A
C864        C865   1.411       .  A
C864       Br873   1.926       .  S
C865       Br869   1.928       .  S
C874        C875   1.408       .  A
C874        C879   1.407       .  A
C875        C876   1.401       .  A
C875       Br887   1.931       .  S
C876        C877   1.408       .  A
C876       Br891   1.932       .  S
C877        C880   1.475       .  S
C877        C878   1.408       .  A
C878        C879   1.405       .  A
C878       Br886   1.927       .  S
C879       Br890   1.928       .  S
C880        C881   1.402       .  A
C880        C885   1.403       .  A
C881        C882   1.405       .  A
C881       Br892   1.932       .  S
C882        C883   1.421       .  A
C882       Br888   1.933       .  S
C883        C884   1.424       .  A
C884        C885   1.405       .  A
C884       Br893   1.936       .  S
C885       Br889   1.935       .  S
C894        C895   1.407       .  A
C894        C899   1.409       .  A
C895        C896   1.409       .  A
C895       Br907   1.928       .  S
C896        C897   1.411       .  A
C896       Br911   1.928       .  S
C897        C900   1.489       .  S
C897        C898   1.411       .  A
C898        C899   1.408       .  A
C898       Br906   1.930       .  S
C899       Br910   1.930       .  S
C900        C901   1.409       .  A
C900        C905   1.407       .  A
C901        C902   1.410       .  A
C901       Br912   1.933       .  S
C902        C903   1.418       .  A
C902       Br908   1.934       .  S
C903        C904   1.415       .  A
C904        C905   1.410       .  A
C904       Br913   1.926       .  S
C905       Br909   1.931       .  S
C914        C915   1.407       .  A
C914        C919   1.409       .  A
C915        C916   1.406       .  A
C915       Br927   1.928       .  S
C916        C917   1.409       .  A
C916       Br931   1.929       .  S
C917        C920   1.487       .  S
C917        C918   1.411       .  A
C918        C919   1.410       .  A
C918       Br926   1.928       .  S
C919       Br930   1.929       .  S
C920        C921   1.407       .  A
C920        C925   1.410       .  A
C921        C922   1.410       .  A
C921       Br932   1.929       .  S
C922        C923   1.416       .  A
C922       Br928   1.928       .  S
C923        C924   1.414       .  A
C924        C925   1.408       .  A
C924       Br933   1.931       .  S
C925       Br929   1.932       .  S
C934        C935   1.410       .  A
C934        C939   1.409       .  A
C935        C936   1.413       .  A
C935       Br947   1.927       .  S
C936        C937   1.412       .  A
C936       Br951   1.927       .  S
C937        C940   1.497       .  S
C937        C938   1.411       .  A
C938        C939   1.410       .  A
C938       Br946   1.929       .  S
C939       Br950   1.928       .  S
C940        C941   1.412       .  A
C940        C945   1.412       .  A
C941        C942   1.415       .  A
C941       Br952   1.927       .  S
C942        C943   1.412       .  A
C942       Br948   1.928       .  S
C943        C944   1.410       .  A
C944        C945   1.410       .  A
C944       Br953   1.930       .  S
C945       Br949   1.931       .  S
C954        C955   1.409       .  A
C954        C959   1.408       .  A
C955        C956   1.408       .  A
C955       Br967   1.928       .  S
C956        C957   1.409       .  A
C956       Br971   1.928       .  S
C957        C960   1.488       .  S
C957        C958   1.411       .  A
C958        C959   1.410       .  A
C958       Br966   1.928       .  S
C959       Br970   1.927       .  S
C960        C961   1.412       .  A
C960        C965   1.409       .  A
C961        C962   1.408       .  A
C961       Br972   1.932       .  S
C962        C963   1.410       .  A
C962       Br968   1.931       .  S
C963        C964   1.410       .  A
C964        C965   1.410       .  A
C964       Br973   1.928       .  S
C965       Br969   1.927       .  S
C974        C975   1.409       .  A
C974        C979   1.410       .  A
C975        C976   1.412       .  A
C975       Br987   1.926       .  S
C976        C977   1.411       .  A
C976       Br991   1.928       .  S
C977        C980   1.490       .  S
C977        C978   1.409       .  A
C978        C979   1.407       .  A
C978       Br986   1.929       .  S
C979       Br990   1.930       .  S
C980        C981   1.412       .  A
C980        C985   1.410       .  A
C981        C982   1.408       .  A
C981       Br992   1.930       .  S
C982        C983   1.408       .  A
C982       Br988   1.930       .  S
C983        C984   1.409       .  A
C984        C985   1.410       .  A
C984       Br993   1.929       .  S
C985       Br989   1.927       .  S
C994        C995   1.412       .  A
C994        C999   1.411       .  A
C995        C996   1.408       .  A
C995      Br1007   1.932       .  S
C996        C997   1.411       .  A
C996      Br1011   1.932       .  S
C997       C1000   1.490       .  S
C997        C998   1.410       .  A
C998        C999   1.409       .  A
C998      Br1006   1.930       .  S
C999      Br1010   1.930       .  S
C1000      C1001   1.411       .  A
C1000      C1005   1.409       .  A
C1001      C1002   1.413       .  A
C1001     Br1012   1.929       .  S
C1002      C1003   1.413       .  A
C1002     Br1008   1.927       .  S
C1003      C1004   1.413       .  A
C1004      C1005   1.405       .  A
C1004     Br1013   1.932       .  S
C1005     Br1009   1.932       .  S
C1014      C1015   1.410       .  A
C1014      C1019   1.411       .  A
C1015      C1016   1.411       .  A
C1015     Br1027   1.930       .  S
C1016      C1017   1.413       .  A
C1016     Br1031   1.930       .  S
C1017      C1020   1.494       .  S
C1017      C1018   1.410       .  A
C1018      C1019   1.412       .  A
C1018     Br1026   1.928       .  S
C1019     Br1030   1.929       .  S
C1020      C1021   1.411       .  A
C1020      C1025   1.411       .  A
C1021      C1022   1.410       .  A
C1021     Br1032   1.929       .  S
C1022      C1023   1.409       .  A
C1022     Br1028   1.928       .  S
C1023      C1024   1.411       .  A
C1024      C1025   1.412       .  A
C1024     Br1033   1.928       .  S
C1025     Br1029   1.928       .  S
C1034      C1035   1.413       .  A
C1034      C1039   1.412       .  A
C1035      C1036   1.410       .  A
C1035     Br1047   1.930       .  S
C1036      C1037   1.409       .  A
C1036     Br1051   1.930       .  S
C1037      C1040   1.494       .  S
C1037      C1038   1.411       .  A
C1038      C1039   1.414       .  A
C1038     Br1046   1.928       .  S
C1039     Br1050   1.927       .  S
C1040      C1041   1.411       .  A
C1040      C1045   1.412       .  A
C1041      C1042   1.413       .  A
C1041     Br1052   1.928       .  S
C1042      C1043   1.411       .  A
C1042     Br1048   1.926       .  S
C1043      C1044   1.409       .  A
C1044      C1045   1.410       .  A
C1044     Br1053   1.930       .  S
C1045     Br1049   1.930       .  S
