geometry optimzed in LAMMPS
_audit_creation_date              2020-11-30 
_audit_creation_method            'lammps2cif' 
_symmetry_space_group_name_H-M    'P1' 
_symmetry_Int_Tables_number       1 
_symmetry_cell_setting            triclinic 
loop_ 
_symmetry_equiv_pos_as_xyz 
  x,y,z 
_cell_length_a                    32.03646893 
_cell_length_b                    31.840639801646812 
_cell_length_c                    31.956263308251735 
_cell_angle_alpha                 90.06253286485659 
_cell_angle_beta                  89.91190036188542 
_cell_angle_gamma                 90.02293807776792 
loop_ 
_atom_site_label 
_atom_site_type_symbol 
_atom_site_fract_x 
_atom_site_fract_y 
_atom_site_fract_z 
_atom_site_charge 
O1          O  0.51954006  0.38507382  0.06403448    -0.75200
O2          O  0.50637747  0.43120693  0.11725277    -0.54100
C3          C  0.51411492  0.39380076  0.10285510     0.78500
O4          O  0.61083806  0.52343492  0.92421090    -0.59800
O5          O  0.56093257  0.51299236  0.87423584    -0.52800
C6          C  0.59867408  0.52098917  0.88604144     0.70500
O7          O  0.61740918  0.51782838  0.06210892    -0.74400
O8          O  0.57213948  0.50664260  0.11629480    -0.54900
C9          C  0.60893362  0.51390417  0.10113400     0.76500
O10         O  0.51279971  0.38964726  0.92615969    -0.59500
O11         O  0.50083291  0.43902014  0.87565437    -0.52600
C12         C  0.50819836  0.40128566  0.88798801     0.73100
Zr13       Zr  0.51158607  0.41738710  0.99647962     2.54700
O14         O  0.57443936  0.37466793  0.99154543    -0.80100
O15         O  0.46544281  0.35670653  0.00015926    -0.93500
Zr16       Zr  0.58478782  0.51487719  0.99452130     2.64700
O17         O  0.64329359  0.46638311  0.98904792    -0.98500
O18         O  0.62875691  0.57730997  0.99432290    -0.80500
O19         O  0.55083495  0.46486719  0.03756071    -0.83900
O20         O  0.54721127  0.46614227  0.95371439    -2.18600
O21         O  0.38215738  0.49664663  0.93311085    -0.67300
O22         O  0.42830806  0.50097683  0.87887912    -0.51800
C23         C  0.39096506  0.49999140  0.89409139     0.71500
O24         O  0.48462367  0.61651167  0.06879222    -0.60200
O25         O  0.49896338  0.56934784  0.12054114    -0.52100
C26         C  0.49020027  0.60678819  0.10719536     0.73300
O27         O  0.47997842  0.61917182  0.93178249    -0.71600
O28         O  0.48906104  0.57181486  0.87888753    -0.50200
C29         C  0.48241593  0.60917912  0.89299316     0.74700
O30         O  0.38857128  0.50973552  0.06949499    -0.66900
O31         O  0.43711731  0.50554752  0.12155036    -0.54100
C32         C  0.39969215  0.51191378  0.10799640     0.73100
Zr33       Zr  0.41452713  0.49002787  0.00126874     2.77500
O34         O  0.34332391  0.51685252  0.00595214    -0.97600
O35         O  0.38215954  0.42112423  0.00752067    -0.78500
Zr36       Zr  0.48840606  0.58806436  0.99972258     2.70100
O37         O  0.42909992  0.63562062  0.00405266    -0.79700
O38         O  0.53918177  0.64500373  0.99944986    -0.98800
Zr39       Zr  0.50314633  0.50131776  0.08257825     2.21500
Zr40       Zr  0.49605399  0.50442298  0.91466355     2.11100
O41         O  0.44829999  0.54112159  0.95936122    -2.47500
O42         O  0.45304279  0.53868900  0.04150640    -0.79500
O43         O  0.46044693  0.45316985  0.95652922    -0.71700
O44         O  0.53876058  0.55145744  0.03929963    -2.32700
O45         O  0.46361150  0.45212185  0.04139626    -2.28900
O46         O  0.53565701  0.55332074  0.95509563    -0.73500
H47         H  0.56622844  0.45153254  0.93529062     0.78500
H48         H  0.55435630  0.57111846  0.05622065     0.79600
H49         H  0.42830607  0.55740968  0.94370813     0.81900
H50         H  0.44897483  0.43233313  0.05899272     0.79500
H51         H  0.61794943  0.59499957  0.01741436     0.42500
H52         H  0.55243013  0.64366005  0.97146771     0.41500
H53         H  0.40718869  0.61916468  0.01852657     0.41100
H54         H  0.34325814  0.54306458  0.98928880     0.39100
H55         H  0.36465677  0.41848666  0.98213984     0.42200
H56         H  0.48349129  0.33241535  0.99324822     0.37000
H57         H  0.56418906  0.34532610  0.99138249     0.43100
H58         H  0.66814951  0.48367562  0.99558220     0.39500
H59         H  0.32574447  0.49692647  0.98996877     0.44400
H60         H  0.44672729  0.35964149  0.97572781     0.43200
H61         H  0.64020492  0.44745511  0.01341999     0.43300
H62         H  0.52209133  0.67090259  0.99877337     0.43700
C63         C  0.18183623  0.51395856  0.22788990     0.03200
C64         C  0.22455838  0.51904679  0.21976694    -0.12900
C65         C  0.23865527  0.52745725  0.17907600     0.00700
C66         C  0.20920819  0.53133112  0.14646140    -0.11500
C67         C  0.16621100  0.52604289  0.15378810     0.03200
C68         C  0.15286843  0.51748945  0.19490657    -0.10900
H69         H  0.24684594  0.51586464  0.24504548     0.08800
H70         H  0.21993201  0.53705242  0.11479702     0.06300
H71         H  0.11997010  0.51445470  0.20189167     0.06200
C72         C  0.81823835  0.49154533  0.23673427     0.03200
C73         C  0.77746921  0.49945513  0.22306757    -0.12900
C74         C  0.76920352  0.50582140  0.18039628     0.00700
C75         C  0.80265054  0.50520797  0.15148500    -0.11500
C76         C  0.84400679  0.49833889  0.16481251     0.03200
C77         C  0.85116034  0.49086679  0.20748757    -0.10900
H78         H  0.75219541  0.50019647  0.24562807     0.08800
H79         H  0.79598818  0.50867702  0.11851283     0.06300
H80         H  0.88273723  0.48515548  0.21822659     0.06200
C81         C  0.22961301  0.49998441  0.81668712     0.03200
C82         C  0.22116904  0.49649806  0.77375020    -0.12900
C83         C  0.18006876  0.49199365  0.75957547     0.00700
C84         C  0.14709578  0.49092386  0.78869200    -0.11500
C85         C  0.15450354  0.49555829  0.83172341     0.03200
C86         C  0.19609123  0.49995477  0.84553125    -0.10900
H87         H  0.24657634  0.49716762  0.75132784     0.08800
H88         H  0.11529651  0.48752248  0.77761457     0.06300
H89         H  0.20273123  0.50185375  0.87867615     0.06200
C90         C  0.75961827  0.52509907  0.81456357     0.03200
C91         C  0.78816458  0.52749596  0.84804518    -0.12900
C92         C  0.83144528  0.52487863  0.84119352     0.00700
C93         C  0.84592253  0.52182321  0.79967152    -0.11500
C94         C  0.81778356  0.52060836  0.76565229     0.03200
C95         C  0.77462723  0.52090408  0.77352388    -0.10900
H96         H  0.77648693  0.53073613  0.87974601     0.08800
H97         H  0.87913264  0.52169877  0.79344303     0.06300
H98         H  0.75278311  0.52036518  0.74766645     0.06200
N99         N  0.99408329  0.51176160  0.06199173    -0.36500
N100        N  0.06316644  0.51444671  0.00283607    -0.57100
N101        N  0.00333223  0.50945483  0.93339805    -0.36500
N102        N  0.93424158  0.51348211  0.99256274    -0.57100
C103        C  0.02628032  0.52339952  0.08700665     0.27100
C104        C  0.95817671  0.52242277  0.08189276     0.27100
C105        C  0.03923829  0.51929973  0.91300868     0.27100
C106        C  0.97103382  0.51947099  0.90779956     0.27100
C107        C  0.08434000  0.50618687  0.03861028     0.35700
C108        C  0.08905216  0.50450902  0.97079110     0.35700
C109        C  0.90844001  0.50454650  0.02497349     0.35700
C110        C  0.91295327  0.50424972  0.95706289     0.35700
C111        C  0.01063318  0.54200031  0.12300212    -0.21800
C112        C  0.96774128  0.54163879  0.11966514    -0.21800
C113        C  0.02954794  0.53617301  0.87421838    -0.21800
C114        C  0.98666983  0.53600345  0.87082822    -0.21800
C115        C  0.12352699  0.49031264  0.02911563    -0.22900
C116        C  0.12667087  0.48971955  0.98625698    -0.22900
C117        C  0.87076876  0.48930062  0.01001869    -0.22900
C118        C  0.87375430  0.48873929  0.96711791    -0.22900
C119        C  0.06915425  0.51500473  0.07944013    -0.18200
C120        C  0.91719536  0.51309390  0.06760903    -0.18200
C121        C  0.92802822  0.51183889  0.91591652    -0.18200
C122        C  0.08036794  0.51143469  0.92789726    -0.18200
H123        H  0.02830165  0.55442075  0.14907652     0.14700
H124        H  0.94612925  0.55394651  0.14265165     0.14700
H125        H  0.05104167  0.54748173  0.85064207     0.14700
H126        H  0.96902008  0.54694560  0.84412575     0.14700
H127        H  0.14747416  0.48002193  0.05059490     0.13000
H128        H  0.15356509  0.47934486  0.96850416     0.13000
H129        H  0.84387955  0.47956192  0.02812493     0.13000
H130        H  0.84970360  0.47796515  0.94595513     0.13000
H131        H  0.99629107  0.49334369  0.03513876     0.26200
H132        H  0.00123109  0.49273661  0.96129059     0.26200
O133        O  0.06525887  0.48273936  0.37861548    -0.75200
O134        O  0.11864811  0.49685165  0.42389178    -0.54100
C135        C  0.10385831  0.48935478  0.38702560     0.78500
O136        O  0.93348196  0.61576587  0.47841407    -0.59800
O137        O  0.88193064  0.56834077  0.49310127    -0.52800
C138        C  0.89521250  0.60563335  0.48436127     0.70500
O139        O  0.07026756  0.61550581  0.47165171    -0.74400
O140        O  0.12179554  0.56853726  0.48750830    -0.54900
C141        C  0.10857743  0.60586032  0.47811800     0.76500
O142        O  0.92793612  0.47499484  0.38599522    -0.59500
O143        O  0.87840884  0.49218557  0.43459215    -0.52600
C144        C  0.89004291  0.48116685  0.39740538     0.73100
Zr145      Zr  0.99778392  0.48379826  0.41189584     2.54700
O146        O  0.99124340  0.53040706  0.35193963    -0.80100
O147        O  0.99732054  0.42008325  0.36963286    -0.93500
Zr148      Zr  0.00191145  0.58505872  0.47920557     2.64700
O149        O  0.99919833  0.62053553  0.41172145    -0.98500
O150        O  0.00441121  0.64949772  0.52018369    -0.80500
O151        O  0.04176959  0.53451265  0.44309588    -0.83900
O152        O  0.95791623  0.53531594  0.44674911    -2.18600
O153        O  0.93277835  0.38600138  0.51697583    -0.67300
O154        O  0.88066877  0.43384584  0.50702621    -0.51800
C155        C  0.89422382  0.39622957  0.51356969     0.71500
O156        O  0.07338311  0.50177604  0.60848740    -0.60200
O157        O  0.12474776  0.50005920  0.55884529    -0.52100
C158        C  0.11160285  0.49819391  0.59701751     0.73300
O159        O  0.93748542  0.52350376  0.61275043    -0.71600
O160        O  0.88349532  0.50948202  0.56838727    -0.50200
C161        C  0.89852920  0.51882342  0.60476675     0.74700
O162        O  0.06965075  0.38348190  0.50747835    -0.66900
O163        O  0.12146387  0.43151030  0.49532887    -0.54100
C164        C  0.10777399  0.39357766  0.50040193     0.73100
Zr165      Zr  0.00177397  0.41561029  0.51303649     2.77500
O166        O  0.00524059  0.38033555  0.58049457    -0.97600
O167        O  0.99733645  0.34981563  0.47443181    -0.78500
Zr168      Zr  0.00530165  0.51766968  0.58056661     2.70100
O169        O  0.00086646  0.48981145  0.65135311    -0.79700
O170        O  0.01812031  0.58664779  0.61093497    -0.98800
Zr171      Zr  0.08535327  0.50002249  0.49301072     2.21500
Zr172      Zr  0.91807808  0.50079149  0.49998560     2.11100
O173        O  0.96188123  0.46592067  0.54983510    -2.47500
O174        O  0.04497777  0.46555113  0.54591230    -0.79500
O175        O  0.95825039  0.44899866  0.46370918    -0.71700
O176        O  0.04547204  0.55227097  0.52937307    -2.32700
O177        O  0.04125622  0.44892369  0.45986647    -2.28900
O178        O  0.96170654  0.55252136  0.53231471    -0.73500
H179        H  0.93980749  0.54934782  0.42697778     0.78500
H180        H  0.06339855  0.57247297  0.54306051     0.79600
H181        H  0.94548602  0.45184959  0.57104335     0.81900
H182        H  0.05744618  0.42874665  0.44417109     0.79500
H183        H  0.00189321  0.67230917  0.49930896     0.42500
H184        H  0.99731043  0.60519297  0.59748014     0.41500
H185        H  0.00658536  0.45941728  0.64817758     0.41100
H186        H  0.01189041  0.35077448  0.57351490     0.39100
H187        H  0.00713264  0.35690090  0.44589990     0.42200
H188        H  0.02174493  0.40374574  0.37928328     0.37000
H189        H  0.01260432  0.55239168  0.35658699     0.43100
H190        H  0.96954995  0.61937788  0.40305912     0.39500
H191        H  0.03097791  0.39131220  0.59368537     0.44400
H192        H  0.00502958  0.42959688  0.34115557     0.43200
H193        H  0.00420925  0.65048714  0.41832532     0.43300
H194        H  0.00844217  0.58408673  0.64025978     0.43700
C195        C  0.48955769  0.81992876  0.23844013     0.03200
C196        C  0.48756612  0.85368292  0.21020105    -0.12900
C197        C  0.49161438  0.84736786  0.16702186     0.00700
C198        C  0.49599530  0.80571945  0.15203896    -0.11500
C199        C  0.49723448  0.77131938  0.18026904     0.03200
C200        C  0.49536870  0.77906216  0.22343201    -0.10900
H201        H  0.48281617  0.88524679  0.22206199     0.08800
H202        H  0.49659582  0.79982582  0.11865278     0.06300
H203        H  0.49530200  0.75300587  0.24524291     0.06200
C204        C  0.48374062  0.18055195  0.23610720     0.03200
C205        C  0.48147847  0.14768225  0.20676699    -0.12900
C206        C  0.48683561  0.15486777  0.16383604     0.00700
C207        C  0.49409636  0.19655425  0.15025730    -0.11500
C208        C  0.49588666  0.23033421  0.17929367     0.03200
C209        C  0.49086575  0.22176558  0.22222540    -0.10900
H210        H  0.47612493  0.11587909  0.21764846     0.08800
H211        H  0.49715299  0.20312573  0.11718254     0.06300
H212        H  0.49267387  0.24707421  0.24485002     0.06200
C213        C  0.50098667  0.24121788  0.81557595     0.03200
C214        C  0.50322332  0.21202957  0.84839835    -0.12900
C215        C  0.49832241  0.16901308  0.84082157     0.00700
C216        C  0.49265242  0.15529217  0.79924804    -0.11500
C217        C  0.49136128  0.18442248  0.76583634     0.03200
C218        C  0.49466120  0.22743575  0.77457827    -0.10900
H219        H  0.50827397  0.22300951  0.88013061     0.08800
H220        H  0.49113226  0.12197070  0.79264879     0.06300
H221        H  0.49325566  0.25021360  0.74943938     0.06200
C222        C  0.50276741  0.76726997  0.81450406     0.03200
C223        C  0.50409633  0.80024146  0.84398345    -0.12900
C224        C  0.51769159  0.84044017  0.83225263     0.00700
C225        C  0.52999138  0.84754400  0.79085175    -0.11500
C226        C  0.52736687  0.81537604  0.76071591     0.03200
C227        C  0.51405714  0.77530250  0.77287646    -0.10900
H228        H  0.49607773  0.79436210  0.87640021     0.08800
H229        H  0.53954785  0.87887906  0.78169872     0.06300
H230        H  0.51214125  0.75044157  0.74978387     0.06200
N231        N  0.49142153  0.00073364  0.05941729    -0.36500
N232        N  0.49088865  0.06369341  0.99136050    -0.57100
N233        N  0.48736024  0.99643970  0.92926897    -0.36500
N234        N  0.49321260  0.93411933  0.99563800    -0.57100
C235        C  0.50154121  0.03634837  0.08071551     0.27100
C236        C  0.50357022  0.96718811  0.08284043     0.27100
C237        C  0.49148309  0.03010768  0.90371079     0.27100
C238        C  0.49376771  0.96146533  0.90584918     0.27100
C239        C  0.48437497  0.08882056  0.02500899     0.35700
C240        C  0.48076686  0.08659138  0.95700417     0.35700
C241        C  0.49029377  0.91022182  0.03052134     0.35700
C242        C  0.48609327  0.90814734  0.96277774     0.35700
C243        C  0.51987064  0.02513178  0.11840778    -0.21800
C244        C  0.52101807  0.98174077  0.11977923    -0.21800
C245        C  0.50042733  0.01635062  0.86349577    -0.21800
C246        C  0.50138780  0.97325840  0.86471410    -0.21800
C247        C  0.46999523  0.12772608  0.01189936    -0.22900
C248        C  0.46742540  0.12620925  0.96904169    -0.22900
C249        C  0.48130196  0.86899434  0.01969969    -0.22900
C250        C  0.47876739  0.86765891  0.97697253    -0.22900
C251        C  0.49413329  0.07854456  0.06713490    -0.18200
C252        C  0.49926407  0.92386573  0.07174039    -0.18200
C253        C  0.48973917  0.91933214  0.92002525    -0.18200
C254        C  0.48468966  0.07271605  0.91483340    -0.18200
H255        H  0.53188746  0.04594906  0.14230126     0.14700
H256        H  0.53395448  0.96308500  0.14489099     0.14700
H257        H  0.50496789  0.03528802  0.83575156     0.14700
H258        H  0.50615469  0.95330125  0.83777008     0.14700
H259        H  0.46205829  0.15450223  0.03123327     0.13000
H260        H  0.45680317  0.15150158  0.94915299     0.13000
H261        H  0.47760870  0.84234882  0.04038714     0.13000
H262        H  0.47308015  0.83970271  0.95855818     0.13000
H263        H  0.47432926  0.99942916  0.03181905     0.26200
H264        H  0.47615363  0.99717411  0.95970341     0.26200
C265        C  0.24246529  0.81547241  0.51440171     0.03200
C266        C  0.22864619  0.77485648  0.50472580    -0.12900
C267        C  0.18635686  0.76735567  0.49578234     0.00700
C268        C  0.15808885  0.80158947  0.49556991    -0.11500
C269        C  0.17184145  0.84252325  0.50561197     0.03200
C270        C  0.21385174  0.84883571  0.51511986    -0.10900
H271        H  0.25073353  0.74908521  0.50448520     0.08800
H272        H  0.12529746  0.79605191  0.48945337     0.06300
H273        H  0.22452361  0.88030857  0.52251971     0.06200
C274        C  0.82140897  0.23464771  0.49874430     0.03200
C275        C  0.85372229  0.20507581  0.49449791    -0.12900
C276        C  0.84508402  0.16238956  0.48847901     0.00700
C277        C  0.80303750  0.14942332  0.48567153    -0.11500
C278        C  0.77012437  0.17902291  0.48881693     0.03200
C279        C  0.77976578  0.22153942  0.49562816    -0.10900
H280        H  0.88593755  0.21537455  0.49638963     0.08800
H281        H  0.79593381  0.11657394  0.48040331     0.06300
H282        H  0.75492002  0.24447954  0.49831060     0.06200
C283        C  0.23559162  0.17773781  0.51103900     0.03200
C284        C  0.22270406  0.21978751  0.50942439    -0.12900
C285        C  0.18054110  0.22991551  0.50279601     0.00700
C286        C  0.15105827  0.19720807  0.49804757    -0.11500
C287        C  0.16354410  0.15492757  0.49915021     0.03200
C288        C  0.20586539  0.14548035  0.50572222    -0.10900
H289        H  0.24563171  0.24459737  0.51277192     0.08800
H290        H  0.11852636  0.20462760  0.49248471     0.06300
H291        H  0.21585502  0.11295798  0.50590524     0.06200
C292        C  0.81708300  0.76466862  0.50001831     0.03200
C293        C  0.77487008  0.77396170  0.50679060    -0.12900
C294        C  0.76243580  0.81521154  0.51562098     0.00700
C295        C  0.79274431  0.84700121  0.51850939    -0.11500
C296        C  0.83488178  0.83836788  0.51138336     0.03200
C297        C  0.84700963  0.79703416  0.50193510    -0.10900
H298        H  0.75174482  0.74919542  0.50475250     0.08800
H299        H  0.78337213  0.87915325  0.52457468     0.06300
H300        H  0.87971971  0.78969263  0.49735757     0.06200
N301        N  0.00356321  0.92892379  0.49050387    -0.36500
N302        N  0.06518274  0.99616398  0.49765794    -0.57100
N303        N  0.99676734  0.05829276  0.49880361    -0.36500
N304        N  0.93546247  0.98985493  0.49812704    -0.57100
C305        C  0.03875676  0.90575486  0.49416394     0.27100
C306        C  0.97089495  0.90247956  0.49585433     0.27100
C307        C  0.02957189  0.08297266  0.51006586     0.27100
C308        C  0.96098863  0.07999665  0.50676702     0.27100
C309        C  0.09160304  0.96355194  0.49041769     0.35700
C310        C  0.08843728  0.03181189  0.49764097     0.35700
C311        C  0.91294362  0.95472053  0.48999285     0.35700
C312        C  0.90916886  0.02277024  0.49303266     0.35700
C313        C  0.02826482  0.86415724  0.50180888    -0.21800
C314        C  0.98557388  0.86212258  0.50300379    -0.21800
C315        C  0.01418982  0.12117694  0.52441361    -0.21800
C316        C  0.97129995  0.11916713  0.52262975    -0.21800
C317        C  0.13191468  0.97851078  0.48604727    -0.22900
C318        C  0.13010283  0.02133154  0.49136485    -0.22900
C319        C  0.87227739  0.96546038  0.47987625    -0.22900
C320        C  0.86983681  0.00835381  0.48197472    -0.22900
C321        C  0.08017972  0.92030882  0.48929407    -0.18200
C322        C  0.92816361  0.91291868  0.49219754    -0.18200
C323        C  0.91927733  0.06560842  0.49987398    -0.18200
C324        C  0.07302102  0.07309342  0.50626297    -0.18200
H325        H  0.04919430  0.83784219  0.50617191     0.14700
H326        H  0.96745894  0.83391238  0.50828450     0.14700
H327        H  0.03184545  0.14800915  0.53527480     0.14700
H328        H  0.95023464  0.14378920  0.53256122     0.14700
H329        H  0.15999964  0.96048456  0.48047726     0.13000
H330        H  0.15696054  0.04182419  0.49123061     0.13000
H331        H  0.84696242  0.94471047  0.47124029     0.13000
H332        H  0.84222196  0.02679308  0.47551304     0.13000
H333        H  0.00190712  0.95975502  0.48035402     0.26200
H334        H  0.99870249  0.02975979  0.48325197     0.26200
O335        O  0.39023726  0.92954627  0.53018708    -0.75200
O336        O  0.43697398  0.87810744  0.51337791    -0.54100
C337        C  0.40048177  0.89100180  0.52431719     0.78500
O338        O  0.47525685  0.06739280  0.38804379    -0.59800
O339        O  0.49310418  0.11964155  0.43380754    -0.52800
C340        C  0.48194661  0.10607508  0.39740474     0.70500
O341        O  0.47221434  0.92736268  0.39044363    -0.74400
O342        O  0.49293001  0.87684806  0.43657759    -0.54900
C343        C  0.48021791  0.88913433  0.40033031     0.76500
O344        O  0.38990405  0.06850690  0.52881524    -0.59500
O345        O  0.43507545  0.12027854  0.50890391    -0.52600
C346        C  0.39873873  0.10695762  0.52086556     0.73100
Zr347      Zr  0.41941753  0.99918482  0.52430463     2.54700
O348        O  0.35177120  0.99996508  0.48970091    -0.80100
O349        O  0.38747068  0.00143580  0.59354880    -0.93500
Zr350      Zr  0.48040237  0.99774738  0.41766474     2.64700
O351        O  0.41556689  0.99820335  0.37795970    -0.98500
O352        O  0.52235864  0.99578985  0.35410487    -0.80500
O353        O  0.44801150  0.95704832  0.47045920    -0.83900
O354        O  0.44921218  0.03994726  0.46989152    -2.18600
O355        O  0.50612304  0.06680351  0.61535835    -0.67300
O356        O  0.50388418  0.12040444  0.56805360    -0.51800
C357        C  0.50160659  0.10564315  0.60563456     0.71500
O358        O  0.61525140  0.93157974  0.49879906    -0.60200
O359        O  0.56763074  0.87827175  0.49872017    -0.52100
C360        C  0.60493362  0.89271211  0.50224607     0.73300
O361        O  0.61531384  0.06734849  0.47299328    -0.71600
O362        O  0.57030154  0.11973878  0.49165377    -0.50200
C363        C  0.60668054  0.10597165  0.48024480     0.74700
O364        O  0.53397971  0.93009822  0.61191555    -0.66900
O365        O  0.51532607  0.87809103  0.56644850    -0.54100
C366        C  0.52841390  0.89137214  0.60216034     0.73100
Zr367      Zr  0.52556546  0.00036066  0.58449322     2.77500
O368        O  0.59653104  0.01254264  0.60885131    -0.97600
O369        O  0.50793545  0.99362992  0.65832691    -0.78500
Zr370      Zr  0.58526321  0.99832824  0.47804281     2.70100
O371        O  0.65942316  0.00202357  0.49406480    -0.79700
O372        O  0.60774883  0.98557692  0.40630000    -0.98800
Zr373      Zr  0.50189962  0.91605031  0.50184748     2.21500
Zr374      Zr  0.50252301  0.08316328  0.50061086     2.11100
O375        O  0.55700026  0.04177378  0.53190615    -2.47500
O376        O  0.55533013  0.95830021  0.53216812    -0.79500
O377        O  0.47190778  0.04102298  0.55437730    -0.71700
O378        O  0.53382881  0.95570561  0.44690683    -2.32700
O379        O  0.47157177  0.95791166  0.55629766    -2.28900
O380        O  0.53326696  0.04052882  0.44698011    -0.73500
H381        H  0.42795917  0.05691358  0.45675141     0.78500
H382        H  0.54654608  0.93753439  0.42625233     0.79600
H383        H  0.57807799  0.05924829  0.54470918     0.81900
H384        H  0.45927453  0.94054228  0.57781436     0.79500
H385        H  0.50288008  0.98635444  0.33197568     0.42500
H386        H  0.61134535  0.01396064  0.39420535     0.41500
H387        H  0.66047375  0.00853077  0.52436008     0.41100
H388        H  0.59318976  0.02186885  0.63823012     0.39100
H389        H  0.47785225  0.98649513  0.65848509     0.42200
H390        H  0.39958797  0.02666032  0.60703099     0.37000
H391        H  0.35634937  0.01647746  0.46385837     0.43100
H392        H  0.42322716  0.98710910  0.35000991     0.39500
H393        H  0.60887497  0.98411362  0.61096934     0.44400
H394        H  0.39982306  0.97753976  0.60895480     0.43200
H395        H  0.39842221  0.97572855  0.39072800     0.43300
H396        H  0.63647655  0.97445876  0.40898798     0.43700
C397        C  0.68908576  0.81225498  0.48867013    -0.13300
C398        C  0.71783150  0.82649558  0.51880548     0.08900
C399        C  0.70510587  0.85651553  0.54832830    -0.13300
C400        C  0.66620690  0.87545334  0.54485979    -0.13300
C401        C  0.63915107  0.86417001  0.51230741     0.08900
C402        C  0.64971575  0.83101235  0.48551106    -0.13300
H403        H  0.69822900  0.78920831  0.46546637     0.12900
H404        H  0.72631398  0.86730939  0.57242517     0.12900
H405        H  0.65824655  0.90089162  0.56598225     0.12900
H406        H  0.62920018  0.82225658  0.46004046     0.12900
C407        C  0.86518696  0.87338585  0.51457265    -0.16300
C408        C  0.89828590  0.87709162  0.48904952    -0.31500
H409        H  0.85865686  0.89830604  0.53692089     0.12700
H410        H  0.90496252  0.85252029  0.46640105     0.13200
C411        C  0.29122772  0.14123451  0.55130123    -0.13300
C412        C  0.28016933  0.16711362  0.51776285     0.08900
C413        C  0.31137707  0.18008795  0.48946597    -0.13300
C414        C  0.35225494  0.16414871  0.49262668    -0.13300
C415        C  0.36236440  0.13554438  0.52450052     0.08900
C416        C  0.33188693  0.12605620  0.55489710    -0.13300
H417        H  0.26788472  0.13132865  0.57378971     0.12900
H418        H  0.30343351  0.20023758  0.46338630     0.12900
H419        H  0.37477787  0.17143785  0.46839207     0.12900
H420        H  0.33874090  0.10410841  0.57985228     0.12900
C421        C  0.13350554  0.12068777  0.48892695    -0.16300
C422        C  0.10364662  0.10780565  0.51581462    -0.31500
H423        H  0.13687019  0.10511383  0.45887375     0.12700
H424        H  0.10047394  0.12426834  0.54544597     0.13200
C425        C  0.71453100  0.14008190  0.44999487    -0.13300
C426        C  0.72579244  0.16583073  0.48370278     0.08900
C427        C  0.69459849  0.17819847  0.51239696    -0.13300
C428        C  0.65371431  0.16227330  0.50916400    -0.13300
C429        C  0.64339252  0.13416437  0.47689802     0.08900
C430        C  0.67387669  0.12470854  0.44649321    -0.13300
H431        H  0.73756964  0.13086357  0.42690548     0.12900
H432        H  0.70242431  0.19830309  0.53858981     0.12900
H433        H  0.63123057  0.16939248  0.53349791     0.12900
H434        H  0.66690784  0.10298162  0.42132812     0.12900
C435        C  0.88293340  0.09548028  0.50356393    -0.16300
C436        C  0.88097955  0.13279018  0.48382527    -0.31500
H437        H  0.85609680  0.08539593  0.52181434     0.12700
H438        H  0.90781491  0.14336042  0.46587218     0.13200
C439        C  0.29683226  0.85026085  0.55737731    -0.13300
C440        C  0.28678127  0.82435042  0.52336192     0.08900
C441        C  0.31824346  0.81285695  0.49484472    -0.13300
C442        C  0.35799855  0.83101509  0.49776890    -0.13300
C443        C  0.36624547  0.86076582  0.52912796     0.08900
C444        C  0.33617422  0.86841113  0.56016473    -0.13300
H445        H  0.27323625  0.85890203  0.58013225     0.12900
H446        H  0.31106797  0.79288982  0.46835488     0.12900
H447        H  0.38069875  0.82504206  0.47332087     0.12900
H448        H  0.34204549  0.89110288  0.58476721     0.12900
C449        C  0.11234862  0.88692368  0.48217560    -0.16300
C450        C  0.14308028  0.87907293  0.50953643    -0.31500
H451        H  0.10719970  0.86505314  0.45656805     0.12700
H452        H  0.14810973  0.90086110  0.53525105     0.13200
C453        C  0.56728308  0.85238438  0.70473688    -0.13300
C454        C  0.53484140  0.82510071  0.71608295     0.08900
C455        C  0.50603962  0.81215436  0.68541830    -0.13300
C456        C  0.50672941  0.83022684  0.64554473    -0.13300
C457        C  0.53609915  0.86146219  0.63620590     0.08900
C458        C  0.56783837  0.87049905  0.66513406    -0.13300
H459        H  0.59047831  0.86199280  0.72744674     0.12900
H460        H  0.48069783  0.79109472  0.69335454     0.12900
H461        H  0.48187530  0.82300538  0.62374627     0.12900
H462        H  0.59113414  0.89421048  0.65826573     0.12900
C463        C  0.48796757  0.88440645  0.88879692    -0.16300
C464        C  0.51980883  0.87541139  0.86283844    -0.31500
H465        H  0.46051431  0.86435346  0.88880819     0.12700
H466        H  0.54719904  0.89554234  0.86243462     0.13200
C467        C  0.51415170  0.18728283  0.69021439    -0.13300
C468        C  0.48861610  0.16977576  0.72176668     0.08900
C469        C  0.46232769  0.13617660  0.71151255    -0.13300
C470        C  0.46403921  0.11813334  0.67184406    -0.13300
C471        C  0.49205298  0.13320140  0.64145096     0.08900
C472        C  0.51586508  0.16906006  0.65020980    -0.13300
H473        H  0.53480707  0.21326698  0.69723897     0.12900
H474        H  0.44160214  0.12274738  0.73472755     0.12900
H475        H  0.44516141  0.09057720  0.66562400     0.12900
H476        H  0.53801091  0.18086905  0.62743868     0.12900
C477        C  0.47992977  0.10328366  0.87941265    -0.16300
C478        C  0.50164392  0.13941497  0.87682489    -0.31500
H479        H  0.45975561  0.09429560  0.85363019     0.12700
H480        H  0.52167655  0.14839118  0.90275306     0.13200
C481        C  0.50916631  0.16326582  0.35079119    -0.13300
C482        C  0.47702070  0.13546879  0.36212179     0.08900
C483        C  0.44406382  0.12849916  0.33403599    -0.13300
C484        C  0.44494443  0.14582945  0.29404778    -0.13300
C485        C  0.47877414  0.17062574  0.28119503     0.08900
C486        C  0.51000591  0.18084019  0.31044311    -0.13300
H487        H  0.53526020  0.16851103  0.37167239     0.12900
H488        H  0.41899113  0.10709609  0.34205024     0.12900
H489        H  0.42032321  0.13787142  0.27223038     0.12900
H490        H  0.53651520  0.19977157  0.30110653     0.12900
C491        C  0.48271794  0.11785056  0.13482881    -0.16300
C492        C  0.50025922  0.11522280  0.09650820    -0.31500
H493        H  0.46507673  0.09096684  0.14608264     0.12700
H494        H  0.51780613  0.14188273  0.08472989     0.13200
C495        C  0.51335045  0.81769371  0.31323979    -0.13300
C496        C  0.48273773  0.82782547  0.28345467     0.08900
C497        C  0.44703899  0.84984226  0.29609884    -0.13300
C498        C  0.44383736  0.86520931  0.33675147    -0.13300
C499        C  0.47643286  0.85916628  0.36545037     0.08900
C500        C  0.51027946  0.83346057  0.35417510    -0.13300
H501        H  0.54106830  0.80055533  0.30397360     0.12900
H502        H  0.42280245  0.85738401  0.27372455     0.12900
H503        H  0.41751900  0.88505023  0.34473132     0.12900
H504        H  0.53610250  0.82900521  0.37555307     0.12900
C505        C  0.48700345  0.88472615  0.13885911    -0.16300
C506        C  0.50824862  0.88953071  0.10282669    -0.31500
H507        H  0.46575465  0.90950609  0.14854470     0.12700
H508        H  0.52963231  0.86482920  0.09324861     0.13200
C509        C  0.83602690  0.35211836  0.48488287    -0.13300
C510        C  0.86523973  0.36039664  0.51657304     0.08900
C511        C  0.87466784  0.32868319  0.54561303    -0.13300
C512        C  0.85844842  0.28841796  0.54089979    -0.13300
C513        C  0.83198289  0.27904073  0.50734620     0.08900
C514        C  0.81929558  0.31153754  0.48039473    -0.13300
H515        H  0.82895121  0.37580642  0.46165414     0.12900
H516        H  0.89726744  0.33426699  0.57020384     0.12900
H517        H  0.86821551  0.26396479  0.56230534     0.12900
H518        H  0.79886400  0.30482396  0.45425898     0.12900
C519        C  0.83725048  0.64851766  0.51430528    -0.13300
C520        C  0.86602309  0.64112966  0.48204490     0.08900
C521        C  0.87397979  0.67294261  0.45258792    -0.13300
C522        C  0.85639491  0.71262751  0.45736015    -0.13300
C523        C  0.83024176  0.72110390  0.49146410     0.08900
C524        C  0.81933067  0.68838459  0.51893423    -0.13300
H525        H  0.83128632  0.62469525  0.53773490     0.12900
H526        H  0.89618317  0.66789890  0.42745717     0.12900
H527        H  0.86466575  0.73726112  0.43549624     0.12900
H528        H  0.79912888  0.69442586  0.54546788     0.12900
C529        C  0.16427272  0.34612962  0.52669622    -0.13300
C530        C  0.13563235  0.35718369  0.49545316     0.08900
C531        C  0.12502844  0.32743886  0.46476192    -0.13300
C532        C  0.14072556  0.28663886  0.46650926    -0.13300
C533        C  0.16746954  0.27456396  0.49903827     0.08900
C534        C  0.18037222  0.30509248  0.52829414    -0.13300
H535        H  0.17185666  0.36818035  0.55137148     0.12900
H536        H  0.10232351  0.33511119  0.44084766     0.12900
H537        H  0.13089970  0.26408729  0.44310744     0.12900
H538        H  0.20100275  0.29656994  0.55371152     0.12900
C539        C  0.16555486  0.65012194  0.50937891    -0.13300
C540        C  0.13731179  0.64237003  0.47671599     0.08900
C541        C  0.12874494  0.67495544  0.44819103    -0.13300
C542        C  0.14551729  0.71509092  0.45378112    -0.13300
C543        C  0.17171180  0.72365588  0.48780031     0.08900
C544        C  0.18274503  0.69042203  0.51477523    -0.13300
H545        H  0.17191667  0.62603378  0.53240826     0.12900
H546        H  0.10681500  0.67000243  0.42288093     0.12900
H547        H  0.13705579  0.73981363  0.43214392     0.12900
H548        H  0.20290545  0.69619062  0.54134162     0.12900
C549        C  0.81909815  0.49608343  0.69009004    -0.13300
C550        C  0.83389974  0.52278204  0.72203728     0.08900
C551        C  0.86525715  0.55191509  0.71243401    -0.13300
C552        C  0.88342926  0.55262084  0.67287623    -0.13300
C553        C  0.87098162  0.52408454  0.64167191     0.08900
C554        C  0.83766851  0.49661630  0.65010330    -0.13300
H555        H  0.79464521  0.47353009  0.69663838     0.12900
H556        H  0.87643406  0.57369935  0.73594983     0.12900
H557        H  0.90880795  0.57441048  0.66722193     0.12900
H558        H  0.82781393  0.47397308  0.62681459     0.12900
C559        C  0.86044814  0.52741634  0.87794947    -0.16300
C560        C  0.89902834  0.51007459  0.87879828    -0.31500
H561        H  0.84896231  0.54317024  0.90584177     0.12700
H562        H  0.91076331  0.49457322  0.85091779     0.13200
C563        C  0.14608189  0.45601275  0.69940927    -0.13300
C564        C  0.17095522  0.48896607  0.71429836     0.08900
C565        C  0.18341968  0.52090042  0.68653218    -0.13300
C566        C  0.16800357  0.52173556  0.64543261    -0.13300
C567        C  0.14052240  0.49030461  0.63173191     0.08900
C568        C  0.13118653  0.45659598  0.65846949    -0.13300
H569        H  0.13638057  0.43095551  0.72017246     0.12900
H570        H  0.20249276  0.54672523  0.69754844     0.12900
H571        H  0.17458885  0.54860611  0.62573837     0.12900
H572        H  0.10938374  0.43246976  0.64871358     0.12900
C573        C  0.11711407  0.51337465  0.89864865    -0.16300
C574        C  0.11801682  0.49418667  0.86099449    -0.31500
H575        H  0.14469117  0.52986446  0.90955178     0.12700
H576        H  0.09022190  0.47773202  0.85046759     0.13200
C577        C  0.85054328  0.44857706  0.29298495    -0.13300
C578        C  0.82714817  0.48387726  0.28153817     0.08900
C579        C  0.81642350  0.51359512  0.31236640    -0.13300
C580        C  0.83273960  0.51020635  0.35301297    -0.13300
C581        C  0.85958987  0.47688943  0.36311034     0.08900
C582        C  0.86637241  0.44499279  0.33339888    -0.13300
H583        H  0.85864811  0.42498911  0.26990363     0.12900
H584        H  0.79830045  0.54106665  0.30412892     0.12900
H585        H  0.82771846  0.53555997  0.37507499     0.12900
H586        H  0.88714313  0.41908092  0.34038246     0.12900
C587        C  0.88038936  0.49721443  0.13528234    -0.16300
C588        C  0.88073307  0.51544173  0.09712901    -0.31500
H589        H  0.90849822  0.48133510  0.14579597     0.12700
H590        H  0.85303117  0.53140510  0.08594356     0.13200
C591        C  0.13909573  0.47085358  0.27676535    -0.13300
C592        C  0.16716739  0.50403506  0.27070462     0.08900
C593        C  0.17942154  0.52848850  0.30530162    -0.13300
C594        C  0.16155968  0.52154443  0.34482176    -0.13300
C595        C  0.13146144  0.48993357  0.35008455     0.08900
C596        C  0.12154898  0.46380313  0.31601376    -0.13300
H597        H  0.12976314  0.45114057  0.25075538     0.12900
H598        H  0.20109099  0.55428581  0.30126043     0.12900
H599        H  0.16910667  0.54255887  0.37039365     0.12900
H600        H  0.09839468  0.43919411  0.31926550     0.12900
C601        C  0.09772845  0.51314272  0.11676797    -0.16300
C602        C  0.13658837  0.52984017  0.11764996    -0.31500
H603        H  0.08552881  0.49759455  0.14435398     0.12700
H604        H  0.14794967  0.54587538  0.08988900     0.13200
C605        C  0.54131123  0.32234668  0.11894036    -0.13300
C606        C  0.51531724  0.35613555  0.13061101     0.08900
C607        C  0.48513219  0.34914360  0.16184297    -0.13300
C608        C  0.47958837  0.30863105  0.17894388    -0.13000
C609        C  0.50381164  0.27434624  0.16476378     0.08900
C610        C  0.53550611  0.28215478  0.13552325    -0.13300
H611        H  0.56488295  0.32652390  0.09495406     0.12900
H612        H  0.46407433  0.37414559  0.17094619     0.12900
H613        H  0.45494464  0.30365075  0.20163423     0.12900
H614        H  0.55528069  0.25679766  0.12464947     0.12900
C615        C  0.51845004  0.65407026  0.16399296    -0.13300
C616        C  0.48681490  0.64362219  0.13542201     0.08900
C617        C  0.45737504  0.67465324  0.12462521    -0.13300
C618        C  0.46144993  0.71587016  0.13874619    -0.13300
C619        C  0.49430844  0.72714857  0.16524645     0.08900
C620        C  0.52183617  0.69552653  0.17923644    -0.13300
H621        H  0.54203429  0.63117599  0.17221666     0.12900
H622        H  0.43262548  0.66760358  0.10261420     0.12900
H623        H  0.43899007  0.73915806  0.12863484     0.12900
H624        H  0.54696087  0.70335071  0.20049264     0.12900
C625        C  0.50779775  0.64958888  0.83129051    -0.13300
C626        C  0.47912572  0.64482315  0.86407448     0.08900
C627        C  0.45365113  0.67889583  0.87550069    -0.13300
C628        C  0.45958001  0.71819139  0.85745612    -0.13300
C629        C  0.49117605  0.72420883  0.82766573     0.08900
C630        C  0.51388124  0.68914582  0.81322957    -0.13300
H631        H  0.52809158  0.62387618  0.82237710     0.12900
H632        H  0.43106037  0.67578790  0.90058761     0.12900
H633        H  0.44077632  0.74431124  0.86826718     0.12900
H634        H  0.53849023  0.69285166  0.79027356     0.12900
C635        C  0.68651909  0.49587543  0.81245724    -0.13300
C636        C  0.71421721  0.52852907  0.82304253     0.08900
C637        C  0.69921561  0.56283569  0.84605352    -0.13300
C638        C  0.65860292  0.56267567  0.86176347    -0.13300
C639        C  0.63226082  0.52800467  0.85525228     0.08900
C640        C  0.64570002  0.49546408  0.82875307    -0.13300
H641        H  0.69750533  0.46915022  0.79458045     0.12900
H642        H  0.71981760  0.58859079  0.85408521     0.12900
H643        H  0.64901011  0.58794145  0.88239262     0.12900
H644        H  0.62626996  0.46802887  0.82399717     0.12900
C645        C  0.54543903  0.33978288  0.86109855    -0.13300
C646        C  0.51150425  0.36733174  0.85745575     0.08900
C647        C  0.47666141  0.35557294  0.83367345    -0.13300
C648        C  0.47425069  0.31492230  0.81710825    -0.13300
C649        C  0.50658533  0.28610375  0.82456653     0.08900
C650        C  0.54293807  0.29935997  0.84488511    -0.13300
H651        H  0.57237950  0.34835288  0.87972751     0.12900
H652        H  0.44990297  0.37623024  0.83133535     0.12900
H653        H  0.44598181  0.30499376  0.80138992     0.12900
H654        H  0.56828799  0.27756506  0.85044650     0.12900
C655        C  0.32369116  0.53428219  0.87919126    -0.13300
C656        C  0.35418635  0.50504595  0.86684797     0.08900
C657        C  0.34490305  0.47648299  0.83473121    -0.13300
C658        C  0.30472667  0.47577809  0.81704990    -0.13300
C659        C  0.27343456  0.50340838  0.83154152     0.08900
C660        C  0.28381877  0.53346372  0.86182649    -0.13300
H661        H  0.33016182  0.55649973  0.90406606     0.12900
H662        H  0.36765259  0.45315272  0.82530037     0.12900
H663        H  0.29746037  0.45224789  0.79367207     0.12900
H664        H  0.26064791  0.55557987  0.87299086     0.12900
C665        C  0.33930237  0.55658459  0.12507117    -0.13300
C666        C  0.36558177  0.52329680  0.13679958     0.08900
C667        C  0.35251223  0.49576615  0.16841753    -0.13300
C668        C  0.31194790  0.49903414  0.18487625    -0.13300
C669        C  0.28409805  0.52971941  0.16964887     0.08900
C670        C  0.29904051  0.55981107  0.14133665    -0.13300
H671        H  0.34879307  0.57818034  0.10064148     0.12900
H672        H  0.37200600  0.46952016  0.17743747     0.12900
H673        H  0.30128017  0.47542594  0.20678506     0.12900
H674        H  0.27868583  0.58434950  0.12980411     0.12900
C675        C  0.67836011  0.54456270  0.11592410    -0.13300
C676        C  0.64574180  0.51785411  0.12871981     0.08900
C677        C  0.65247929  0.49054228  0.16244851    -0.13300
C678        C  0.69225375  0.48781068  0.18077697    -0.13300
C679        C  0.72568050  0.51234096  0.16554382     0.08900
C680        C  0.71775187  0.54181402  0.13401530    -0.13300
H681        H  0.67393288  0.56628654  0.09022564     0.12900
H682        H  0.62804232  0.46934150  0.17258136     0.12900
H683        H  0.69744729  0.46478698  0.20511916     0.12900
H684        H  0.74243351  0.56194629  0.12239318     0.12900
loop_ 
_geom_bond_atom_site_label_1 
_geom_bond_atom_site_label_2 
_geom_bond_distance 
_geom_bond_site_symmetry_2 
_ccdc_geom_bond_type 
O1          Zr13   2.406   1_554  S
O1            C3   1.283       .  A
O2          Zr39   2.496       .  S
O2            C3   1.300       .  A
C3          C606   1.493       .  S
O4          Zr16   2.411       .  S
O4            C6   1.283       .  A
O5          Zr40   2.461       .  S
O5            C6   1.292       .  A
C6          C639   1.474       .  S
O7          Zr16   2.403   1_554  S
O7            C9   1.282       .  A
O8          Zr39   2.466       .  S
O8            C9   1.295       .  A
C9          C676   1.479       .  S
O10         Zr13   2.414       .  S
O10          C12   1.284       .  A
O11         Zr40   2.431       .  S
O11          C12   1.287       .  A
C12         C646   1.459       .  S
Zr13         O14   2.435       .  S
Zr13         O15   2.435   1_556  S
Zr13         O19   2.364   1_556  S
Zr13         O20   2.362       .  S
Zr13         O43   2.371       .  S
Zr13         O45   2.374   1_556  S
O14          H57   0.990       .  S
O15          H56   0.990   1_554  S
O15          H60   0.990   1_554  S
Zr16         O17   2.435       .  S
Zr16         O18   2.436       .  S
Zr16         O20   2.357       .  S
Zr16         O19   2.368   1_556  S
Zr16         O44   2.360   1_556  S
Zr16         O46   2.361       .  S
O17          H58   0.990       .  S
O17          H61   0.990   1_556  S
O18          H51   0.990   1_556  S
O19         Zr39   2.396       .  S
O20         Zr40   2.396       .  S
O20          H47   0.966       .  S
O21         Zr33   2.423   1_556  S
O21          C23   1.283       .  A
O22         Zr40   2.457       .  S
O22          C23   1.291       .  A
C23         C656   1.475       .  S
O24         Zr36   2.388   1_554  S
O24          C26   1.279       .  A
O25         Zr39   2.485       .  S
O25          C26   1.298       .  A
C26         C616   1.483       .  S
O27         Zr36   2.403       .  S
O27          C29   1.282       .  A
O28         Zr40   2.443       .  S
O28          C29   1.289       .  A
C29         C626   1.468       .  S
O30         Zr33   2.415       .  S
O30          C32   1.283       .  A
O31         Zr39   2.457       .  S
O31          C32   1.292       .  A
C32         C666   1.473       .  S
Zr33         O34   2.440       .  S
Zr33         O35   2.435       .  S
Zr33         O41   2.368   1_554  S
Zr33         O42   2.361       .  S
Zr33         O45   2.363       .  S
Zr33         O43   2.362   1_554  S
O34          H54   0.991   1_554  S
O34          H59   0.990   1_554  S
O35          H55   0.990   1_554  S
Zr36         O37   2.434   1_556  S
Zr36         O38   2.435       .  S
Zr36         O42   2.353   1_556  S
Zr36         O41   2.355       .  S
Zr36         O46   2.354       .  S
Zr36         O44   2.360   1_556  S
O37          H53   0.990       .  S
O38          H52   0.990       .  S
O38          H62   0.990       .  S
Zr39         O42   2.393       .  S
Zr39         O44   2.400       .  S
Zr39         O45   2.406       .  S
Zr40         O41   2.395       .  S
Zr40         O43   2.399       .  S
Zr40         O46   2.388       .  S
O41          H49   0.965       .  S
O44          H48   0.966       .  S
O45          H50   0.966       .  S
C63         C592   1.480       .  S
C63          C64   1.402       .  A
C63          C68   1.410       .  A
C64          C65   1.402       .  A
C64          H69   1.084       .  S
C65         C669   1.488       .  S
C65          C66   1.412       .  A
C66          C67   1.407       .  A
C66          H70   1.084       .  S
C67          C68   1.408       .  A
C67         C602   1.501       .  S
C68          H71   1.081       .  S
C72         C578   1.481       .  S
C72          C73   1.401       .  A
C72          C77   1.408       .  A
C73          C74   1.404       .  A
C73          H78   1.084       .  S
C74         C679   1.488       .  S
C74          C75   1.414       .  A
C75          C76   1.410       .  A
C75          H79   1.081       .  S
C76          C77   1.404       .  A
C76         C587   1.499       .  S
C77          H80   1.084       .  S
C81         C659   1.487       .  S
C81          C82   1.403       .  A
C81          C86   1.414       .  A
C82          C83   1.400       .  A
C82          H87   1.084       .  S
C83         C564   1.480       .  S
C83          C84   1.407       .  A
C84          C85   1.403       .  A
C84          H88   1.084       .  S
C85          C86   1.411       .  A
C85         C574   1.497       .  S
C86          H89   1.082       .  S
C90         C636   1.483       .  S
C90          C91   1.411       .  A
C90          C95   1.402       .  A
C91          C92   1.406       .  A
C91          H96   1.084       .  S
C92          C93   1.408       .  A
C92         C559   1.501       .  S
C93          C94   1.414       .  A
C93          H97   1.082       .  S
C94         C550   1.487       .  S
C94          C95   1.405       .  A
C95          H98   1.084       .  S
N99         C104   1.357       .  A
N99         C103   1.357   1_655  A
N99         H131   1.041       .  S
N100        C107   1.356       .  A
N100        C108   1.354   1_554  A
N101        C106   1.358   1_455  A
N101        C105   1.358       .  A
N101        H132   1.041       .  S
N102        C109   1.355   1_556  A
N102        C110   1.356       .  A
C103        C111   1.386       .  A
C103        C119   1.420       .  A
C104        C120   1.422       .  A
C104        C112   1.387       .  A
C105        C113   1.387       .  A
C105        C122   1.424       .  A
C106        C121   1.422       .  A
C106        C114   1.387       .  A
C107        C119   1.420       .  A
C107        C115   1.387       .  A
C108        C122   1.417       .  A
C108        C116   1.386       .  A
C109        C117   1.386       .  A
C109        C120   1.418       .  A
C110        C118   1.387       .  A
C110        C121   1.421       .  A
C111        C112   1.378   1_455  A
C111        H123   1.082       .  S
C112        H124   1.082       .  S
C113        C114   1.378   1_455  A
C113        H125   1.082       .  S
C114        H126   1.082       .  S
C115        C116   1.373   1_554  A
C115        H127   1.081       .  S
C116        H128   1.082       .  S
C117        C118   1.374   1_554  A
C117        H129   1.082       .  S
C118        H130   1.081       .  S
C119        C601   1.506       .  S
C120        C588   1.502       .  S
C121        C560   1.509       .  S
C122        C573   1.503       .  S
O133       Zr145   2.408   1_455  S
O133        C135   1.283       .  A
O134       Zr171   2.453       .  S
O134        C135   1.292       .  A
C135        C595   1.474       .  S
O136       Zr148   2.401   1_655  S
O136        C138   1.282       .  A
O137       Zr172   2.453       .  S
O137        C138   1.292       .  A
C138        C520   1.469       .  S
O139       Zr148   2.406       .  S
O139        C141   1.282       .  A
O140       Zr171   2.480       .  S
O140        C141   1.297       .  A
C141        C540   1.483       .  S
O142       Zr145   2.403       .  S
O142        C144   1.282       .  A
O143       Zr172   2.462       .  S
O143        C144   1.293       .  A
C144        C581   1.475       .  S
Zr145       O146   2.434       .  S
Zr145       O147   2.436       .  S
Zr145       O151   2.364   1_655  S
Zr145       O152   2.357       .  S
Zr145       O175   2.360       .  S
Zr145       O177   2.352   1_655  S
O146        H189   0.990   1_655  S
O147        H188   0.990   1_655  S
O147        H192   0.990   1_655  S
Zr148       O149   2.437   1_455  S
Zr148       O150   2.434       .  S
Zr148       O152   2.360   1_455  S
Zr148       O151   2.355       .  S
Zr148       O176   2.370       .  S
Zr148       O178   2.368   1_455  S
O149        H190   0.990       .  S
O149        H193   0.990   1_655  S
O150        H183   0.990       .  S
O151       Zr171   2.390       .  S
O152       Zr172   2.393       .  S
O152        H179   0.968       .  S
O153       Zr165   2.406   1_655  S
O153        C155   1.282       .  A
O154       Zr172   2.455       .  S
O154        C155   1.292       .  A
C155        C510   1.474       .  S
O156       Zr168   2.412       .  S
O156        C158   1.283       .  A
O157       Zr171   2.455       .  S
O157        C158   1.291       .  A
C158        C567   1.468       .  S
O159       Zr168   2.409   1_655  S
O159        C161   1.283       .  A
O160       Zr172   2.464       .  S
O160        C161   1.293       .  A
C161        C553   1.481       .  S
O162       Zr165   2.410       .  S
O162        C164   1.283       .  A
O163       Zr171   2.471       .  S
O163        C164   1.295       .  A
C164        C530   1.471       .  S
Zr165       O166   2.435       .  S
Zr165       O167   2.434   1_455  S
Zr165       O173   2.361   1_455  S
Zr165       O174   2.355       .  S
Zr165       O177   2.368       .  S
Zr165       O175   2.360   1_455  S
O166        H186   0.990       .  S
O166        H191   0.990       .  S
O167        H187   0.990   1_655  S
Zr168       O169   2.435       .  S
Zr168       O170   2.435       .  S
Zr168       O174   2.364       .  S
Zr168       O173   2.369   1_455  S
Zr168       O178   2.360   1_455  S
Zr168       O176   2.354       .  S
O169        H185   0.990       .  S
O170        H184   0.990   1_455  S
O170        H194   0.990       .  S
Zr171       O174   2.394       .  S
Zr171       O176   2.397       .  S
Zr171       O177   2.401       .  S
Zr172       O173   2.398       .  S
Zr172       O175   2.390       .  S
Zr172       O178   2.394       .  S
O173        H181   0.967       .  S
O176        H180   0.967       .  S
O177        H182   0.965       .  S
C195        C496   1.476       .  S
C195        C196   1.406       .  A
C195        C200   1.399       .  A
C196        C197   1.400       .  A
C196        H201   1.084       .  S
C197        C198   1.416       .  A
C197        C505   1.500       .  S
C198        C199   1.420       .  A
C198        H202   1.083       .  S
C199        C619   1.489       .  S
C199        C200   1.402       .  A
C200        H203   1.084       .  S
C204        C485   1.484       .  S
C204        C205   1.406       .  A
C204        C209   1.404       .  A
C205        C206   1.401       .  A
C205        H210   1.085       .  S
C206        C207   1.416       .  A
C206        C491   1.505       .  S
C207        C208   1.421       .  A
C207        H211   1.082       .  S
C208        C609   1.498       .  S
C208        C209   1.408       .  A
C209        H212   1.084       .  S
C213        C649   1.468       .  S
C213        C214   1.404       .  A
C213        C218   1.396       .  A
C214        C215   1.399       .  A
C214        H219   1.085       .  S
C215        C216   1.410       .  A
C215        C478   1.492       .  S
C216        C217   1.416       .  A
C216        H220   1.083       .  S
C217        C468   1.486       .  S
C217        C218   1.401       .  A
C218        H221   1.084       .  S
C222        C629   1.482       .  S
C222        C223   1.410       .  A
C222        C227   1.402       .  A
C223        C224   1.403       .  A
C223        H228   1.083       .  S
C224        C225   1.398       .  A
C224        C464   1.482       .  S
C225        C226   1.408       .  A
C225        H229   1.084       .  S
C226        C454   1.479       .  S
C226        C227   1.400       .  A
C227        H230   1.083       .  S
N231        C236   1.362   1_545  A
N231        C235   1.361       .  A
N231        H263   1.040   1_545  S
N232        C239   1.356   1_556  A
N232        C240   1.358       .  A
N233        C238   1.357       .  A
N233        C237   1.355   1_565  A
N233        H264   1.036       .  S
N234        C241   1.353   1_556  A
N234        C242   1.355       .  A
C235        C243   1.388       .  A
C235        C251   1.432       .  A
C236        C252   1.431       .  A
C236        C244   1.386       .  A
C237        C245   1.387       .  A
C237        C254   1.419       .  A
C238        C253   1.422       .  A
C238        C246   1.389       .  A
C239        C251   1.421       .  A
C239        C247   1.387       .  A
C240        C254   1.423       .  A
C240        C248   1.386       .  A
C241        C249   1.387       .  A
C241        C252   1.416       .  A
C242        C250   1.387       .  A
C242        C253   1.417       .  A
C243        C244   1.383   1_545  A
C243        H255   1.082       .  S
C244        H256   1.082       .  S
C245        C246   1.373   1_545  A
C245        H257   1.082       .  S
C246        H258   1.080       .  S
C247        C248   1.373   1_554  A
C247        H259   1.082       .  S
C248        H260   1.082       .  S
C249        C250   1.369   1_554  A
C249        H261   1.082       .  S
C250        H262   1.082       .  S
C251        C492   1.510       .  S
C252        C506   1.506       .  S
C253        C463   1.494       .  S
C254        C477   1.502       .  S
C265        C440   1.476       .  S
C265        C266   1.401       .  A
C265        C270   1.404       .  A
C266        C267   1.405       .  A
C266        H271   1.084       .  S
C267        C543   1.490       .  S
C267        C268   1.417       .  A
C268        C269   1.412       .  A
C268        H272   1.083       .  S
C269        C270   1.395       .  A
C269        C450   1.490       .  S
C270        H273   1.085       .  S
C274        C513   1.479       .  S
C274        C275   1.406       .  A
C274        C279   1.401       .  A
C275        C276   1.400       .  A
C275        H280   1.085       .  S
C276        C277   1.412       .  A
C276        C436   1.494       .  S
C277        C278   1.418       .  A
C277        H281   1.083       .  S
C278        C426   1.490       .  S
C278        C279   1.405       .  A
C279        H282   1.084       .  S
C283        C412   1.484       .  S
C283        C284   1.402       .  A
C283        C288   1.411       .  A
C284        C285   1.405       .  A
C284        H289   1.084       .  S
C285        C533   1.487       .  S
C285        C286   1.414       .  A
C286        C287   1.405       .  A
C286        H290   1.084       .  S
C287        C288   1.405       .  A
C287        C421   1.490       .  S
C288        H291   1.084       .  S
C292        C523   1.475       .  S
C292        C293   1.401       .  A
C292        C297   1.409       .  A
C293        C294   1.401       .  A
C293        H298   1.084       .  S
C294        C398   1.477       .  S
C294        C295   1.405       .  A
C295        C296   1.396       .  A
C295        H299   1.084       .  S
C296        C297   1.405       .  A
C296        C407   1.482       .  S
C297        H300   1.083       .  S
N301        C306   1.354   1_455  A
N301        C305   1.353       .  A
N301        H333   1.036       .  S
N302        C309   1.359       .  A
N302        C310   1.357   1_565  A
N303        C308   1.362       .  A
N303        C307   1.361   1_655  A
N303        H334   1.037       .  S
N304        C311   1.356       .  A
N304        C312   1.355   1_565  A
C305        C313   1.388       .  A
C305        C321   1.414       .  A
C306        C322   1.414       .  A
C306        C314   1.388       .  A
C307        C315   1.390       .  A
C307        C324   1.432       .  A
C308        C323   1.430       .  A
C308        C316   1.386       .  A
C309        C321   1.425       .  A
C309        C317   1.383       .  A
C310        C324   1.431       .  A
C310        C318   1.390       .  A
C311        C319   1.386       .  A
C311        C322   1.420       .  A
C312        C320   1.387       .  A
C312        C323   1.419       .  A
C313        C314   1.370   1_455  A
C313        H325   1.083       .  S
C314        H326   1.082       .  S
C315        C316   1.377   1_455  A
C315        H327   1.082       .  S
C316        H328   1.082       .  S
C317        C318   1.375   1_565  A
C317        H329   1.082       .  S
C318        H330   1.080       .  S
C319        C320   1.370   1_565  A
C319        H331   1.082       .  S
C320        H332   1.082       .  S
C321        C449   1.498       .  S
C322        C408   1.492       .  S
C323        C435   1.508       .  S
C324        C422   1.509       .  S
O335       Zr347   2.413       .  S
O335        C337   1.284       .  A
O336       Zr373   2.433       .  S
O336        C337   1.287       .  A
C337        C443   1.467       .  S
O338       Zr350   2.418   1_545  S
O338        C340   1.285       .  A
O339       Zr374   2.451       .  S
O339        C340   1.291       .  A
C340        C482   1.475       .  S
O341       Zr350   2.417       .  S
O341        C343   1.284       .  A
O342       Zr373   2.447       .  S
O342        C343   1.290       .  A
C343        C499   1.472       .  S
O344       Zr347   2.406   1_545  S
O344        C346   1.282       .  A
O345       Zr374   2.477       .  S
O345        C346   1.296       .  A
C346        C415   1.483       .  S
Zr347       O348   2.435       .  S
Zr347       O349   2.438   1_565  S
Zr347       O353   2.365       .  S
Zr347       O354   2.370   1_565  S
Zr347       O377   2.351   1_565  S
Zr347       O379   2.361       .  S
O348        H391   0.990   1_565  S
O349        H390   0.990       .  S
O349        H394   0.990   1_545  S
Zr350       O351   2.436       .  S
Zr350       O352   2.435       .  S
Zr350       O354   2.362   1_565  S
Zr350       O353   2.367       .  S
Zr350       O378   2.367       .  S
Zr350       O380   2.367   1_565  S
O351        H392   0.991       .  S
O351        H395   0.990       .  S
O352        H385   0.990       .  S
O353       Zr373   2.388       .  S
O354       Zr374   2.403       .  S
O354        H381   0.966       .  S
O355       Zr367   2.415       .  S
O355        C357   1.284       .  A
O356       Zr374   2.459       .  S
O356        C357   1.292       .  A
C357        C471   1.473       .  S
O358       Zr370   2.426       .  S
O358        C360   1.286       .  A
O359       Zr373   2.427       .  S
O359        C360   1.285       .  A
C360        C401   1.461       .  S
O361       Zr370   2.404   1_545  S
O361        C363   1.281       .  A
O362       Zr374   2.480       .  S
O362        C363   1.297       .  A
C363        C429   1.483       .  S
O364       Zr367   2.419   1_565  S
O364        C366   1.284       .  A
O365       Zr373   2.432       .  S
O365        C366   1.287       .  A
C366        C457   1.468       .  S
Zr367       O368   2.435       .  S
Zr367       O369   2.435   1_545  S
Zr367       O375   2.361       .  S
Zr367       O376   2.343   1_545  S
Zr367       O379   2.373   1_545  S
Zr367       O377   2.359       .  S
O368        H388   0.990       .  S
O368        H393   0.990   1_545  S
O369        H389   0.990       .  S
Zr370       O371   2.434   1_565  S
Zr370       O372   2.436       .  S
Zr370       O376   2.353       .  S
Zr370       O375   2.385   1_565  S
Zr370       O380   2.361   1_565  S
Zr370       O378   2.355       .  S
O371        H387   0.990       .  S
O372        H386   0.990   1_565  S
O372        H396   0.990       .  S
Zr373       O376   2.383       .  S
Zr373       O378   2.392       .  S
Zr373       O379   2.396       .  S
Zr374       O375   2.407       .  S
Zr374       O377   2.390       .  S
Zr374       O380   2.396       .  S
O375        H383   0.966       .  S
O378        H382   0.967       .  S
O379        H384   0.966       .  S
C397        C398   1.408       .  A
C397        C402   1.400       .  A
C397        H403   1.083       .  S
C398        C399   1.403       .  A
C399        C400   1.389       .  A
C399        H404   1.083       .  S
C400        C401   1.402       .  A
C400        H405   1.084       .  S
C401        C402   1.400       .  A
C402        H406   1.083       .  S
C407        C408   1.342       .  D
C407        H409   1.087       .  S
C408        H410   1.086       .  S
C411        C412   1.399       .  A
C411        C416   1.394       .  A
C411        H417   1.083       .  S
C412        C413   1.409       .  A
C413        C414   1.408       .  A
C413        H418   1.083       .  S
C414        C415   1.405       .  A
C414        H419   1.083       .  S
C415        C416   1.409       .  A
C416        H420   1.084       .  S
C421        C422   1.349       .  D
C421        H423   1.086       .  S
C422        H424   1.086       .  S
C425        C426   1.401       .  A
C425        C430   1.396       .  A
C425        H431   1.083       .  S
C426        C427   1.411       .  A
C427        C428   1.408       .  A
C427        H432   1.083       .  S
C428        C429   1.404       .  A
C428        H433   1.083       .  S
C429        C430   1.409       .  A
C430        H434   1.084       .  S
C435        C436   1.347       .  D
C435        H437   1.087       .  S
C436        H438   1.086       .  S
C439        C440   1.402       .  A
C439        C444   1.389       .  A
C439        H445   1.083       .  S
C440        C441   1.406       .  A
C441        C442   1.402       .  A
C441        H446   1.083       .  S
C442        C443   1.404       .  A
C442        H447   1.083       .  S
C443        C444   1.403       .  A
C444        H448   1.084       .  S
C449        C450   1.341       .  D
C449        H451   1.087       .  S
C450        H452   1.087       .  S
C453        C454   1.402       .  A
C453        C458   1.391       .  A
C453        H459   1.083       .  S
C454        C455   1.408       .  A
C455        C456   1.399       .  A
C455        H460   1.083       .  S
C456        C457   1.401       .  A
C456        H461   1.083       .  S
C457        C458   1.405       .  A
C458        H462   1.084       .  S
C463        C464   1.345       .  D
C463        H465   1.087       .  S
C464        H466   1.087       .  S
C467        C468   1.412       .  A
C467        C472   1.404       .  A
C467        H473   1.083       .  S
C468        C469   1.400       .  A
C469        C470   1.392       .  A
C469        H474   1.083       .  S
C470        C471   1.406       .  A
C470        H475   1.084       .  S
C471        C472   1.401       .  A
C472        H476   1.083       .  S
C477        C478   1.347       .  D
C477        H479   1.086       .  S
C478        H480   1.087       .  S
C481        C482   1.405       .  A
C481        C486   1.406       .  A
C481        H487   1.083       .  S
C482        C483   1.404       .  A
C483        C484   1.393       .  A
C483        H488   1.084       .  S
C484        C485   1.402       .  A
C484        H489   1.083       .  S
C485        C486   1.408       .  A
C486        H490   1.083       .  S
C491        C492   1.349       .  D
C491        H493   1.087       .  S
C492        H494   1.085       .  S
C495        C496   1.406       .  A
C495        C500   1.404       .  A
C495        H501   1.083       .  S
C496        C497   1.400       .  A
C497        C498   1.391       .  A
C497        H502   1.084       .  S
C498        C499   1.404       .  A
C498        H503   1.084       .  S
C499        C500   1.405       .  A
C500        H504   1.083       .  S
C505        C506   1.346       .  D
C505        H507   1.087       .  S
C506        H508   1.087       .  S
C509        C510   1.405       .  A
C509        C514   1.406       .  A
C509        H515   1.083       .  S
C510        C511   1.405       .  A
C511        C512   1.391       .  A
C511        H516   1.084       .  S
C512        C513   1.400       .  A
C512        H517   1.084       .  S
C513        C514   1.407       .  A
C514        H518   1.083       .  S
C519        C520   1.402       .  A
C519        C524   1.401       .  A
C519        H525   1.083       .  S
C520        C521   1.407       .  A
C521        C522   1.392       .  A
C521        H526   1.084       .  S
C522        C523   1.400       .  A
C522        H527   1.084       .  S
C523        C524   1.407       .  A
C524        H528   1.083       .  S
C529        C530   1.402       .  A
C529        C534   1.406       .  A
C529        H535   1.083       .  S
C530        C531   1.405       .  A
C531        C532   1.394       .  A
C531        H536   1.084       .  S
C532        C533   1.402       .  A
C532        H537   1.083       .  S
C533        C534   1.410       .  A
C534        H538   1.083       .  S
C539        C540   1.404       .  A
C539        C544   1.407       .  A
C539        H545   1.083       .  S
C540        C541   1.409       .  A
C541        C542   1.398       .  A
C541        H546   1.084       .  S
C542        C543   1.401       .  A
C542        H547   1.083       .  S
C543        C544   1.411       .  A
C544        H548   1.083       .  S
C549        C550   1.410       .  A
C549        C554   1.409       .  A
C549        H555   1.083       .  S
C550        C551   1.401       .  A
C551        C552   1.391       .  A
C551        H556   1.083       .  S
C552        C553   1.406       .  A
C552        H557   1.084       .  S
C553        C554   1.405       .  A
C554        H558   1.083       .  S
C559        C560   1.354       .  D
C559        H561   1.086       .  S
C560        H562   1.085       .  S
C563        C564   1.401       .  A
C563        C568   1.393       .  A
C563        H569   1.083       .  S
C564        C565   1.408       .  A
C565        C566   1.404       .  A
C565        H570   1.083       .  S
C566        C567   1.403       .  A
C566        H571   1.083       .  S
C567        C568   1.404       .  A
C568        H572   1.084       .  S
C573        C574   1.349       .  D
C573        H575   1.085       .  S
C574        H576   1.087       .  S
C577        C578   1.400       .  A
C577        C582   1.393       .  A
C577        H583   1.083       .  S
C578        C579   1.408       .  A
C579        C580   1.405       .  A
C579        H584   1.083       .  S
C580        C581   1.404       .  A
C580        H585   1.083       .  S
C581        C582   1.406       .  A
C582        H586   1.084       .  S
C587        C588   1.351       .  D
C587        H589   1.087       .  S
C588        H590   1.084       .  S
C591        C592   1.401       .  A
C591        C596   1.392       .  A
C591        H597   1.083       .  S
C592        C593   1.408       .  A
C593        C594   1.403       .  A
C593        H598   1.083       .  S
C594        C595   1.404       .  A
C594        H599   1.083       .  S
C595        C596   1.406       .  A
C596        H600   1.084       .  S
C601        C602   1.354       .  D
C601        H603   1.084       .  S
C602        H604   1.086       .  S
C605        C606   1.410       .  A
C605        C610   1.398       .  A
C605        H611   1.083       .  S
C606        C607   1.406       .  A
C607        C608   1.413       .  A
C607        H612   1.083       .  S
C608        C609   1.413       .  A
C608        H613   1.083       .  S
C609        C610   1.401       .  A
C610        H614   1.083       .  S
C615        C616   1.405       .  A
C615        C620   1.411       .  A
C615        H621   1.083       .  S
C616        C617   1.410       .  A
C617        C618   1.393       .  A
C617        H622   1.084       .  S
C618        C619   1.399       .  A
C618        H623   1.083       .  S
C619        C620   1.412       .  A
C620        H624   1.083       .  S
C625        C626   1.401       .  A
C625        C630   1.399       .  A
C625        H631   1.083       .  S
C626        C627   1.405       .  A
C627        C628   1.391       .  A
C627        H632   1.084       .  S
C628        C629   1.402       .  A
C628        H633   1.083       .  S
C629        C630   1.410       .  A
C630        H634   1.083       .  S
C635        C636   1.408       .  A
C635        C640   1.407       .  A
C635        H641   1.083       .  S
C636        C637   1.401       .  A
C637        C638   1.394       .  A
C637        H642   1.083       .  S
C638        C639   1.405       .  A
C638        H643   1.084       .  S
C639        C640   1.405       .  A
C640        H644   1.083       .  S
C645        C646   1.402       .  A
C645        C650   1.389       .  A
C645        H651   1.084       .  S
C646        C647   1.402       .  A
C647        C648   1.400       .  A
C647        H652   1.083       .  S
C648        C649   1.405       .  A
C648        H653   1.083       .  S
C649        C650   1.399       .  A
C650        H654   1.083       .  S
C655        C656   1.405       .  A
C655        C660   1.394       .  A
C655        H661   1.084       .  S
C656        C657   1.403       .  A
C657        C658   1.407       .  A
C657        H662   1.083       .  S
C658        C659   1.411       .  A
C658        H663   1.083       .  S
C659        C660   1.401       .  A
C660        H664   1.083       .  S
C665        C666   1.405       .  A
C665        C670   1.394       .  A
C665        H671   1.084       .  S
C666        C667   1.402       .  A
C667        C668   1.405       .  A
C667        H672   1.083       .  S
C668        C669   1.411       .  A
C668        H673   1.083       .  S
C669        C670   1.402       .  A
C670        H674   1.083       .  S
C675        C676   1.408       .  A
C675        C680   1.392       .  A
C675        H681   1.084       .  S
C676        C677   1.403       .  A
C677        C678   1.406       .  A
C677        H682   1.083       .  S
C678        C679   1.412       .  A
C678        H683   1.083       .  S
C679        C680   1.401       .  A
C680        H684   1.083       .  S
