geometry optimzed in LAMMPS
_audit_creation_date              2020-11-30 
_audit_creation_method            'lammps2cif' 
_symmetry_space_group_name_H-M    'P1' 
_symmetry_Int_Tables_number       1 
_symmetry_cell_setting            triclinic 
loop_ 
_symmetry_equiv_pos_as_xyz 
  x,y,z 
_cell_length_a                    41.19930179 
_cell_length_b                    41.31511700410185 
_cell_length_c                    72.32462716060449 
_cell_angle_alpha                 89.93184964844176 
_cell_angle_beta                  90.0643792379463 
_cell_angle_gamma                 119.93723818851103 
loop_ 
_atom_site_label 
_atom_site_type_symbol 
_atom_site_fract_x 
_atom_site_fract_y 
_atom_site_fract_z 
_atom_site_charge 
O1          O  0.10623292  0.30960801  0.32970907    -0.88500
C2          C  0.18511007  0.35340339  0.28907124     0.87600
Mg3        Mg  0.10383653  0.34057483  0.35345085     1.58100
O4          O  0.18949710  0.29023634  0.32028233    -0.88200
O5          O  0.10151080  0.25652612  0.32167246    -0.75500
C6          C  0.27410347  0.42111031  0.38866296     0.92600
O7          O  0.15138984  0.39359845  0.31581605    -0.75300
O8          O  0.24652584  0.42695908  0.38807464    -0.82800
Mg9        Mg  0.11252736  0.33562601  0.30314786     1.58000
C10         C  0.29139402  0.32003415  0.34429078     0.92500
O11         O  0.07172948  0.28148017  0.28764090    -0.81100
H12         H  0.16519987  0.24055737  0.33290030    -0.06500
C13         C  0.25614900  0.40238797  0.33462175     0.87500
O14         O  0.12861346  0.31439282  0.37247394    -0.75600
O15         O  0.15838055  0.32757647  0.29715597    -0.88400
O16         O  0.27545901  0.31499865  0.32867745    -0.81200
C17         C  0.22313258  0.28442705  0.27552438     0.92700
C18         C  0.07292799  0.25792956  0.27667443     0.92500
Mg19       Mg  0.23429094  0.34213900  0.36295451     1.58000
O20         O  0.27544964  0.39665507  0.37839838    -0.81100
O21         O  0.19506437  0.28424242  0.35017885    -0.75400
O22         O  0.18857426  0.27509564  0.27652812    -0.81200
O23         O  0.06340512  0.34308408  0.30877335    -0.82900
O24         O  0.15879873  0.40246556  0.38926379    -0.81200
C25         C  0.18285802  0.27047375  0.33422814     0.86900
O26         O  0.18869589  0.35043835  0.36867959    -0.88400
O27         O  0.24106538  0.36815012  0.33627097    -0.88500
O28         O  0.24512417  0.42115033  0.34391293    -0.75500
Mg29       Mg  0.14660027  0.27070673  0.29931130     1.58000
O30         O  0.24662083  0.30507950  0.28775468    -0.82900
H31         H  0.06798161  0.26104805  0.34084443    -0.06600
O32         O  0.15740488  0.38726508  0.34560434    -0.88200
H33         H  0.18104817  0.43714035  0.33319621    -0.06500
H34         H  0.16755402  0.30899552  0.38721321    -0.06600
C35         C  0.16366685  0.40721119  0.33177057     0.86900
C36         C  0.09081758  0.27531891  0.33117350     0.87500
C37         C  0.16211879  0.32449593  0.37680152     0.87600
H38         H  0.27891705  0.41662824  0.32491268    -0.06600
O39         O  0.21853052  0.36311405  0.29340648    -0.75600
Mg40       Mg  0.20023631  0.40708649  0.36632348     1.58000
H41         H  0.17991304  0.36903178  0.27863516    -0.06600
C42         C  0.05454233  0.35593717  0.32257930     0.92500
O43         O  0.10053351  0.37221799  0.37855287    -0.82900
C44         C  0.12422927  0.39267108  0.39076796     0.92600
O45         O  0.10017361  0.25146031  0.27720369    -0.82900
Mg46       Mg  0.24340648  0.33710103  0.31260649     1.58200
O47         O  0.07264568  0.36363151  0.33764142    -0.81200
O48         O  0.28245820  0.33302232  0.35799816    -0.82900
C49         C  0.34230087  0.15163928  0.18622276     0.02200
C50         C  0.33971705  0.18462285  0.18506056     0.02100
C51         C  0.35848167  0.20995787  0.17050467    -0.18400
C52         C  0.37865143  0.20301317  0.15687522     0.02200
C53         C  0.38131724  0.17015216  0.15823601     0.02100
C54         C  0.36311064  0.14511319  0.17286245    -0.18400
H55         H  0.36479600  0.11978251  0.17376237     0.04200
H56         H  0.35682602  0.23528807  0.16958192     0.04200
C57         C  0.84193573  0.12576082  0.17514411     0.02200
C58         C  0.87620549  0.16013160  0.17558124     0.02100
C59         C  0.88268166  0.18708616  0.16198095    -0.18400
C60         C  0.85656321  0.18070000  0.14784850     0.02200
C61         C  0.82220079  0.14619710  0.14737197     0.02100
C62         C  0.81543752  0.11961141  0.16129296    -0.18400
H63         H  0.78892435  0.09363144  0.16146111     0.04200
H64         H  0.90839500  0.21381463  0.16248616     0.04200
O65         O  0.23867181  0.87036724  0.33757060    -0.88500
C66         C  0.15352324  0.82551894  0.37498355     0.87600
Mg67       Mg  0.24180644  0.90494896  0.31462558     1.58100
O68         O  0.15515941  0.76246407  0.34278025    -0.88200
O69         O  0.24271427  0.82056788  0.34354341    -0.75500
C70         C  0.07114583  0.81063094  0.27558084     0.92600
O71         O  0.18829966  0.90431994  0.35115420    -0.75300
O72         O  0.09780004  0.84457319  0.27657719    -0.82800
Mg73       Mg  0.22750926  0.88574244  0.36414967     1.58000
C74         C  0.05336856  0.68891050  0.31556809     0.92500
O75         O  0.26802877  0.87203719  0.37935376    -0.81100
H76         H  0.18227797  0.73967551  0.33035649    -0.06500
C77         C  0.08672151  0.80566112  0.32910249     0.87500
O78         O  0.21915513  0.85530822  0.29475308    -0.75600
O79         O  0.18230819  0.82958929  0.36757049    -0.88400
O80         O  0.06777029  0.69716875  0.33171575    -0.81200
C81         C  0.11990540  0.71897879  0.38658956     0.92700
C82         C  0.26912679  0.84604842  0.38833360     0.92500
Mg83       Mg  0.11307677  0.77190786  0.30007754     1.58000
O84         O  0.07188683  0.78496114  0.28502790    -0.81100
O85         O  0.15271866  0.75349963  0.31274960    -0.75400
O86         O  0.15351094  0.74647559  0.38678418    -0.81200
O87         O  0.27601141  0.94512954  0.36127387    -0.82900
O88         O  0.18815213  0.91205033  0.27748068    -0.81200
C89         C  0.16383906  0.75109342  0.32885240     0.86900
O90         O  0.15820453  0.82777080  0.29660633    -0.88400
O91         O  0.10178535  0.78649251  0.32689384    -0.88500
O92         O  0.09847320  0.83675220  0.32084961    -0.75500
Mg93       Mg  0.19653820  0.78608139  0.36475664     1.58000
O94         O  0.09730188  0.71432687  0.37347685    -0.82900
H95         H  0.27822716  0.86204128  0.32634130    -0.06600
O96         O  0.18611381  0.89515254  0.32112426    -0.88200
H97         H  0.15937309  0.91854356  0.33334675    -0.06500
H98         H  0.18405502  0.81124701  0.27878736    -0.06600
C99         C  0.17753386  0.90683131  0.33497947     0.86900
C100        C  0.25441053  0.85181365  0.33551661     0.87500
C101        C  0.18675102  0.83084430  0.28940199     0.87600
H102        H  0.06332926  0.79602974  0.33851706    -0.06600
O103        O  0.12131848  0.80005384  0.36988158    -0.75600
Mg104      Mg  0.14433120  0.87145324  0.29931453     1.58000
H105        H  0.15576193  0.84474867  0.38570222    -0.06600
C106        C  0.28788080  0.96857177  0.34805311     0.92500
O107        O  0.24537529  0.94016823  0.29006723    -0.82900
C108        C  0.22296153  0.93707374  0.27716853     0.92600
O109        O  0.24248843  0.81218967  0.38740345    -0.82900
Mg110      Mg  0.09926439  0.75092268  0.34953143     1.58200
O111        O  0.27383490  0.95923612  0.33188183    -0.81200
O112        O  0.06502630  0.71307394  0.30272575    -0.82900
O113        O  0.65905335  0.76867021  0.33920655    -0.88500
C114        C  0.69700871  0.85183419  0.37711105     0.87600
Mg115      Mg  0.69115796  0.76774004  0.31618694     1.58100
O116        O  0.63141411  0.84883578  0.34482866    -0.88200
O117        O  0.60394443  0.76150663  0.34521754    -0.75500
C118        C  0.76228885  0.93513156  0.27738452     0.92600
O119        O  0.74322830  0.82010744  0.35301373    -0.75300
O120        O  0.76969163  0.90876129  0.27889829    -0.82800
Mg121      Mg  0.68576644  0.77946662  0.36571967     1.58000
C122        C  0.65576961  0.94995791  0.31846717     0.92500
O123        O  0.63288329  0.73826117  0.38108169    -0.81100
H124        H  0.58157439  0.82181674  0.33227873    -0.06500
C125        C  0.74294728  0.92112569  0.33124039     0.87500
O126        O  0.66228882  0.78903205  0.29661566    -0.75600
O127        O  0.67254328  0.82294884  0.36974320    -0.88400
O128        O  0.65072893  0.93513962  0.33445899    -0.81200
C129        C  0.62089096  0.88257329  0.38862949     0.92700
C130        C  0.60524210  0.73518905  0.39033211     0.92500
Mg131      Mg  0.68257769  0.89387049  0.30231233     1.58000
O132        O  0.73675603  0.93594578  0.28699944    -0.81100
O133        O  0.62481440  0.85307232  0.31492451    -0.75400
O134        O  0.61380003  0.84863393  0.38836218    -0.81200
O135        O  0.69792719  0.73196126  0.36193714    -0.82900
O136        O  0.74873569  0.82277873  0.27960180    -0.81200
C137        C  0.61135671  0.84069656  0.33089915     0.86900
O138        O  0.69442825  0.84979820  0.29877893    -0.88400
O139        O  0.70861098  0.90473893  0.32909518    -0.88500
O140        O  0.76323122  0.91043016  0.32304211    -0.75500
Mg141      Mg  0.61383193  0.80672467  0.36655150     1.58000
O142        O  0.64017214  0.90569207  0.37598751    -0.82900
H143        H  0.61224472  0.72770248  0.32788834    -0.06600
O144        O  0.73524730  0.82341756  0.32321401    -0.88200
H145        H  0.78572693  0.85043979  0.33514003    -0.06500
H146        H  0.65213737  0.82371223  0.28090311    -0.06600
C147        C  0.75598434  0.83178145  0.33688270     0.86900
C148        C  0.62474461  0.75140910  0.33713320     0.87500
C149        C  0.66939756  0.82123571  0.29144600     0.87600
H150        H  0.75594698  0.94469788  0.34055033    -0.06600
O151        O  0.70330220  0.88379949  0.37193539    -0.75600
Mg152      Mg  0.75212748  0.86466499  0.30163541     1.58000
H153        H  0.71438443  0.84989381  0.38776819    -0.06600
C154        C  0.71064556  0.72225566  0.34833193     0.92500
O155        O  0.72323304  0.76577103  0.29170184    -0.82900
C156        C  0.74077918  0.78877796  0.27877847     0.92600
O157        O  0.59515973  0.75986007  0.38903364    -0.82900
Mg158      Mg  0.67491785  0.90504815  0.35189455     1.58200
O159        O  0.71640868  0.73833690  0.33268288    -0.81200
O160        O  0.66974883  0.94044088  0.30537167    -0.82900
C161        C  0.86507187  0.68171252  0.18010587     0.02200
C162        C  0.82974872  0.67992264  0.18017199     0.02100
C163        C  0.80335392  0.65960643  0.16638932    -0.18400
C164        C  0.81009543  0.63977197  0.15270457     0.02200
C165        C  0.84499005  0.64075466  0.15261012     0.02100
C166        C  0.87215843  0.66222952  0.16609380    -0.18400
H167        H  0.89908493  0.66354777  0.16572026     0.04200
H168        H  0.77681022  0.65916158  0.16635968     0.04200
O169        O  0.46350974  0.03682636  0.00414590    -0.88500
C170        C  0.50451449  0.99292784  0.04213109     0.87600
Mg171      Mg  0.42775265  0.00676479  0.98118307     1.58100
O172        O  0.56807601  0.05496969  0.00922331    -0.88200
O173        O  0.51442951  0.08925500  0.01052510    -0.75500
C174        C  0.50857442  0.92152970  0.94223588     0.92600
O175        O  0.42515792  0.95227585  0.01832196    -0.75300
O176        O  0.47569377  0.91646800  0.94426646    -0.82800
Mg177      Mg  0.44691946  0.01043400  0.03095238     1.58000
C178        C  0.63453566  0.01875742  0.98277376     0.92500
O179        O  0.46312134  0.06510575  0.04635806    -0.81100
H180        H  0.59414736  0.10450284  0.99644365    -0.06500
C181        C  0.51847766  0.94273612  0.99622535     0.87500
O182        O  0.47670450  0.03150511  0.96090113    -0.75600
O183        O  0.50194565  0.01812982  0.03431707    -0.88400
O184        O  0.62869669  0.03116686  0.99773979    -0.81200
C185        C  0.61299898  0.06179546  0.05269045     0.92700
C186        C  0.49027301  0.08887219  0.05619732     0.92500
Mg187      Mg  0.55428876  0.00095516  0.96683404     1.58000
O188        O  0.53637863  0.94566823  0.95159211    -0.81100
O189        O  0.57741291  0.06016354  0.97920584    -0.75400
O190        O  0.58639813  0.06923674  0.05319564    -0.81200
O191        O  0.38848486  0.00193653  0.02811944    -0.82900
O192        O  0.41414760  0.94278399  0.94523674    -0.81200
C193        C  0.58063691  0.07446789  0.99517146     0.86900
O194        O  0.50020246  0.99472159  0.96326026    -0.88400
O195        O  0.53875396  0.97669098  0.99388878    -0.88500
O196        O  0.48706254  0.92454503  0.98808762    -0.75500
Mg197      Mg  0.54736203  0.07458677  0.03139902     1.58000
O198        O  0.61598069  0.04312338  0.03945671    -0.82900
H199        H  0.47381994  0.08555799  0.99325550    -0.06600
O200        O  0.43413498  0.95943007  0.98833293    -0.88200
H201        H  0.40788899  0.90915450  0.00033144    -0.06500
H202        H  0.51927150  0.03636864  0.94487117    -0.06600
C203        C  0.42139444  0.93909025  0.00209594     0.86900
C204        C  0.48315771  0.07098489  0.00230709     0.87500
C205        C  0.49930194  0.02100644  0.95567085     0.87600
H206        H  0.52744134  0.92826630  0.00556470    -0.06600
O207        O  0.52858829  0.98413684  0.03711100    -0.75600
Mg208      Mg  0.45383515  0.93848254  0.96684662     1.58000
H209        H  0.48518232  0.97735882  0.05312115    -0.06600
C210        C  0.36593428  0.99039239  0.01452302     0.92500
O211        O  0.38945625  0.97541835  0.95695086    -0.82900
C212        C  0.39023377  0.95388559  0.94459754     0.92600
O213        O  0.52338994  0.09417951  0.05450757    -0.82900
Mg214      Mg  0.57666482  0.00918983  0.01609238     1.58200
O215        O  0.37609488  0.98648955  0.99853557    -0.81200
O216        O  0.61012807  0.00511117  0.97009411    -0.82900
O217        O  0.54922680  0.56518163  0.99427909    -0.88500
C218        C  0.50008261  0.48327353  0.95561797     0.87600
Mg219      Mg  0.58284732  0.56410767  0.01664603     1.58100
O220        O  0.43918537  0.48565098  0.98902541    -0.88200
O221        O  0.50071603  0.57237778  0.98991572    -0.75500
C222        C  0.48156528  0.39443526  0.05389085     0.92600
O223        O  0.57843217  0.51188630  0.97892528    -0.75300
O224        O  0.51604154  0.41940984  0.05238016    -0.82800
Mg225      Mg  0.56252339  0.55394252  0.96721807     1.58000
C226        C  0.36106429  0.38352185  0.01369769     0.92500
O227        O  0.55163883  0.59659537  0.95247079    -0.81100
H228        H  0.41610570  0.51202904  0.00188744    -0.06500
C229        C  0.47692181  0.41184061  0.00007874     0.87500
O230        O  0.53303521  0.54254054  0.03657632    -0.75600
O231        O  0.50538216  0.51164475  0.96385413    -0.88400
O232        O  0.37084251  0.39967511  0.99800002    -0.81200
C233        C  0.39526010  0.45618979  0.94509538     0.92700
C234        C  0.52589129  0.59934026  0.94408432     0.92500
Mg235      Mg  0.44499391  0.43850476  0.02998634     1.58000
O236        O  0.45656074  0.39587929  0.04417230    -0.81100
O237        O  0.42811398  0.48017309  0.01880532    -0.75400
O238        O  0.42260209  0.48960804  0.94609393    -0.81200
O239        O  0.62268962  0.59955220  0.97032466    -0.82900
O240        O  0.58395786  0.50629813  0.05263633    -0.81200
C241        C  0.42703187  0.49313965  0.00302287     0.86900
O242        O  0.50188590  0.48185284  0.03351611    -0.88400
O243        O  0.45919962  0.42825952  0.00287672    -0.88500
O244        O  0.50796908  0.42166281  0.00809576    -0.75500
Mg245      Mg  0.46410447  0.52875528  0.96823400     1.58000
O246        O  0.39016840  0.43154495  0.95709759    -0.82900
H247        H  0.54402711  0.60539906  0.00686553    -0.06600
O248        O  0.56925894  0.50809237  0.00892141    -0.88200
H249        H  0.59058732  0.48024086  0.99590727    -0.06500
H250        H  0.48747760  0.50836782  0.05199705    -0.06600
C251        C  0.58020935  0.49958550  0.99479633     0.86900
C252        C  0.53224890  0.58221867  0.99729376     0.87500
C253        C  0.50677758  0.51051674  0.04130653     0.87600
H254        H  0.46608146  0.38899101  0.99031913    -0.06600
O255        O  0.47407553  0.45113589  0.96031384    -0.75600
Mg256      Mg  0.54384160  0.46558490  0.03011555     1.58000
H257        H  0.51893883  0.48576258  0.94461443    -0.06600
C258        C  0.64656828  0.60933275  0.98329408     0.92500
O259        O  0.61716608  0.56344668  0.04068526    -0.82900
C260        C  0.61104206  0.53999780  0.05351732     0.92600
O261        O  0.49141254  0.57526510  0.94645912    -0.82900
Mg262      Mg  0.42509870  0.42977886  0.98065375     1.58200
O263        O  0.63738749  0.59442436  0.99931164    -0.81200
O264        O  0.38468707  0.39197728  0.02672132    -0.82900
O265        O  0.03010949  0.46082105  0.99462076    -0.88500
C266        C  0.98272803  0.49735084  0.95618632     0.87600
Mg267      Mg  0.00137319  0.42661759  0.01832687     1.58100
O268        O  0.04833945  0.56658679  0.98592673    -0.88200
O269        O  0.08146591  0.51190494  0.98673560    -0.75500
C270        C  0.92213775  0.51732993  0.05560573     0.92600
O271        O  0.94448708  0.42207144  0.98187649    -0.75300
O272        O  0.91652323  0.48399062  0.05538043    -0.82800
Mg273      Mg  0.00197458  0.44228721  0.96837878     1.58000
C274        C  0.01819916  0.63735951  0.01188431     0.92500
O275        O  0.05610055  0.45663015  0.95288826    -0.81100
H276        H  0.09950324  0.59305529  0.99712884    -0.06500
C277        C  0.93742516  0.51835746  0.00222779     0.87500
O278        O  0.02741977  0.47737143  0.03757143    -0.75600
O279        O  0.00930380  0.49662966  0.96364178    -0.88400
O280        O  0.02192812  0.62749496  0.99571364    -0.81200
C281        C  0.04924507  0.60436294  0.94150180     0.92700
C282        C  0.07969202  0.48205886  0.94224686     0.92500
Mg283      Mg  0.00023952  0.55731583  0.02949857     1.58000
O284        O  0.94683416  0.54295548  0.04544120    -0.81100
O285        O  0.05749416  0.57748811  0.01574925    -0.75400
O286        O  0.05959585  0.57982633  0.94214679    -0.81200
O287        O  0.99359127  0.38455821  0.97206216    -0.82900
O288        O  0.94151920  0.41907460  0.05549739    -0.81200
C289        C  0.06963128  0.57999687  0.99934478     0.86900
O290        O  0.99239158  0.50270368  0.03428231    -0.88400
O291        O  0.97173036  0.53881899  0.00343670    -0.88500
O292        O  0.92013435  0.48798747  0.01126663    -0.75500
Mg293      Mg  0.06604004  0.54243035  0.96465410     1.58000
O294        O  0.02934386  0.60715580  0.95417369    -0.82900
H295        H  0.08002556  0.47450375  0.00543873    -0.06600
O296        O  0.95326886  0.43283481  0.01173276    -0.88200
H297        H  0.90225593  0.40665656  0.00034917    -0.06500
H298        H  0.03472001  0.52222432  0.05236253    -0.06600
C299        C  0.93214766  0.41958584  0.99823842     0.86900
C300        C  0.06433170  0.48175304  0.99596745     0.87500
C301        C  0.01844347  0.50150473  0.04202498     0.87600
H302        H  0.92181029  0.52616083  0.99299954    -0.06600
O303        O  0.97354876  0.52130575  0.96071833    -0.75600
Mg304      Mg  0.93542641  0.45692257  0.03307443     1.58000
H305        H  0.96609392  0.47625685  0.94606928    -0.06600
C306        C  0.98420036  0.36227366  0.98566052     0.92500
O307        O  0.97137517  0.39144018  0.04339306    -0.82900
C308        C  0.95156996  0.39429713  0.05610128     0.92600
O309        O  0.08461357  0.51513767  0.94229435    -0.82900
Mg310      Mg  0.00014329  0.57258252  0.97955469     1.58200
O311        O  0.98102549  0.37209731  0.00194385    -0.81200
O312        O  0.00823323  0.61492738  0.02547669    -0.82900
O313        O  0.29720328  0.09686893  0.66781330    -0.88500
C314        C  0.33957756  0.18112424  0.70570979     0.87600
Mg315      Mg  0.32671391  0.09532124  0.64358373     1.58100
O316        O  0.27221082  0.17802427  0.67469308    -0.88200
O317        O  0.24312666  0.09082196  0.67523458    -0.75500
C318        C  0.39924536  0.26308320  0.60560309     0.92600
O319        O  0.38275539  0.14930384  0.67940056    -0.75300
O320        O  0.40500865  0.23557795  0.60609679    -0.82800
Mg321      Mg  0.32730659  0.10937762  0.69379423     1.58000
C322        C  0.29785226  0.28028466  0.65074024     0.92500
O323        O  0.27672272  0.06900824  0.71164271    -0.81100
H324        H  0.22110292  0.15322752  0.66333613    -0.06500
C325        C  0.38232161  0.24799892  0.65940041     0.87500
O326        O  0.29641569  0.11704558  0.62509611    -0.75600
O327        O  0.31466758  0.15272019  0.69820872    -0.88400
O328        O  0.28796886  0.25991790  0.66513665    -0.81200
C329        C  0.26585613  0.21212125  0.71927678     0.92700
C330        C  0.25058340  0.06847641  0.72136039     0.92500
Mg331      Mg  0.32079384  0.22384315  0.63182136     1.58000
O332        O  0.37481606  0.26446979  0.61591522    -0.81100
O333        O  0.26311197  0.18428614  0.64527591    -0.75400
O334        O  0.25985132  0.17870477  0.71891855    -0.81200
O335        O  0.34124494  0.06354585  0.68962450    -0.82900
O336        O  0.38345106  0.14914854  0.60571687    -0.81200
C337        C  0.25089374  0.17119440  0.66134869     0.86900
O338        O  0.32979261  0.17794292  0.62655397    -0.88400
O339        O  0.34788803  0.23210694  0.65804303    -0.88500
O340        O  0.40136471  0.23717795  0.65016161    -0.75500
Mg341      Mg  0.25625410  0.13696496  0.69646796     1.58000
O342        O  0.28317382  0.23504525  0.70624430    -0.82900
H343        H  0.24900630  0.05589866  0.65761949    -0.06600
O344        O  0.37156082  0.15063853  0.64983193    -0.88200
H345        H  0.42323339  0.17817072  0.66038869    -0.06500
H346        H  0.28483048  0.15172881  0.61021536    -0.06600
C347        C  0.39371940  0.15969783  0.66293299     0.86900
C348        C  0.26272301  0.07993873  0.66660781     0.87500
C349        C  0.30333419  0.14928175  0.62001259     0.87600
H350        H  0.39650524  0.27133640  0.66877130    -0.06600
O351        O  0.34623453  0.21337169  0.70090457    -0.75600
Mg352      Mg  0.38759204  0.19126439  0.62833352     1.58000
H353        H  0.35702889  0.17849466  0.71608814    -0.06600
C354        C  0.35278203  0.05400441  0.67547746     0.92500
O355        O  0.35741460  0.09241825  0.61811574    -0.82900
C356        C  0.37581704  0.11514851  0.60518096     0.92600
O357        O  0.24038243  0.09273029  0.71913171    -0.82900
Mg358      Mg  0.31604677  0.23348906  0.68154281     1.58200
O359        O  0.35312170  0.06711793  0.65953603    -0.81200
O360        O  0.31303788  0.27343053  0.63719662    -0.82900
C361        C  0.19298353  0.35405009  0.84817577     0.02200
C362        C  0.15891272  0.35478018  0.84816937     0.02100
C363        C  0.13210615  0.33474742  0.83433797    -0.18400
C364        C  0.13880469  0.31502170  0.82034704     0.02200
C365        C  0.17347548  0.31567638  0.82008909     0.02100
C366        C  0.19938975  0.33415677  0.83429987    -0.18400
H367        H  0.22521898  0.33319534  0.83447789     0.04200
H368        H  0.10617777  0.33548566  0.83411678     0.04200
C369        C  0.14316065  0.81988396  0.85110051     0.02200
C370        C  0.17831312  0.85326913  0.85080316     0.02100
C371        C  0.18580891  0.87927670  0.83650809    -0.18400
C372        C  0.15963557  0.87251034  0.82234754     0.02200
C373        C  0.12462654  0.83889915  0.82251076     0.02100
C374        C  0.11660848  0.81369581  0.83724850    -0.18400
H375        H  0.08943019  0.78855934  0.83788438     0.04200
H376        H  0.21259425  0.90497549  0.83626986     0.04200
O377        O  0.89189234  0.20861148  0.67132539    -0.88500
C378        C  0.81598758  0.17699073  0.71271214     0.87600
Mg379      Mg  0.88967124  0.23620598  0.64643379     1.58100
O380        O  0.81321270  0.10643110  0.68437693    -0.88200
O381        O  0.90027329  0.16323022  0.68090186    -0.75500
C382        C  0.71599617  0.13294576  0.61467753     0.92600
O383        O  0.84375085  0.24577858  0.68352019    -0.75300
O384        O  0.74214143  0.16709730  0.61393561    -0.82800
Mg385      Mg  0.88646115  0.23220270  0.69685672     1.58000
C386        C  0.70878403  0.02535579  0.66437564     0.92500
O387        O  0.93045892  0.22413800  0.71254170    -0.81100
H388        H  0.83781544  0.07992926  0.67315708    -0.06500
C389        C  0.73911837  0.14254670  0.66827447     0.87500
O390        O  0.86538293  0.18223543  0.62969729    -0.75600
O391        O  0.84330454  0.17821481  0.70503340    -0.88400
O392        O  0.72763190  0.04016961  0.67895142    -0.81200
C393        C  0.78494758  0.07241477  0.72976886     0.92700
C394        C  0.93265335  0.20179818  0.72397890     0.92500
Mg395      Mg  0.76162639  0.10165378  0.64182283     1.58000
O396        O  0.71772895  0.10980590  0.62576254    -0.81100
O397        O  0.80420727  0.08788379  0.65540007    -0.75400
O398        O  0.81887758  0.09921172  0.72908734    -0.81200
O399        O  0.93309073  0.28987852  0.68907402    -0.82900
O400        O  0.82952581  0.23611985  0.61051648    -0.81200
C401        C  0.81897454  0.09076795  0.67123822     0.86900
O402        O  0.80501180  0.15579206  0.63376500    -0.88400
O403        O  0.75617567  0.12514069  0.66735736    -0.88500
O404        O  0.74777833  0.17054288  0.65796585    -0.75500
Mg405      Mg  0.85785898  0.13470358  0.70449570     1.58000
O406        O  0.76102510  0.06814931  0.71753680    -0.82900
H407        H  0.93096856  0.19914977  0.66040809    -0.06600
O408        O  0.83521626  0.22762022  0.65449286    -0.88200
H409        H  0.81018700  0.25367389  0.66573308    -0.06500
H410        H  0.82777757  0.13477842  0.61659634    -0.06600
C411        C  0.82919972  0.24304290  0.66765256     0.86900
C412        C  0.90880408  0.19102867  0.67044843     0.87500
C413        C  0.83223244  0.15688826  0.62604431     0.87600
H414        H  0.71674948  0.13411596  0.67822260    -0.06600
O415        O  0.78288722  0.15155973  0.70900805    -0.75600
Mg416      Mg  0.79055709  0.19952541  0.63458002     1.58000
H417        H  0.82031051  0.19902480  0.72218146    -0.06600
C418        C  0.93948304  0.30842829  0.67418782     0.92500
O419        O  0.88855489  0.26579833  0.62057401    -0.82900
C420        C  0.86388202  0.26146342  0.60875512     0.92600
O421        O  0.90681477  0.16753415  0.72498342    -0.82900
Mg422      Mg  0.75882403  0.09765304  0.69216417     1.58200
O423        O  0.92119221  0.29354157  0.65951753    -0.81200
O424        O  0.71478757  0.04410389  0.64960052    -0.82900
O425        O  0.75678078  0.63617689  0.66509298    -0.88500
C426        C  0.83828686  0.67783023  0.62552295     0.87600
Mg427      Mg  0.75248806  0.66819250  0.68760820     1.58100
O428        O  0.84211207  0.61538250  0.65747892    -0.88200
O429        O  0.75391202  0.58328532  0.65800012    -0.75500
C430        C  0.92321132  0.74955543  0.72434034     0.92600
O431        O  0.80218735  0.71955979  0.64965294    -0.75300
O432        O  0.89546956  0.75521405  0.72339381    -0.82800
Mg433      Mg  0.76407458  0.66033078  0.63817749     1.58000
C434        C  0.94695017  0.65095764  0.68345152     0.92500
O435        O  0.72313978  0.60377536  0.62545453    -0.81100
H436        H  0.81742062  0.56630855  0.67067389    -0.06500
C437        C  0.90710328  0.72878081  0.67057716     0.87500
O438        O  0.77758336  0.64393490  0.70780906    -0.75600
O439        O  0.81118181  0.65275406  0.63374259    -0.88400
O440        O  0.93208227  0.64379444  0.66741740    -0.81200
C441        C  0.87732437  0.60826618  0.61396091     0.92700
C442        C  0.72608580  0.58401407  0.61284120     0.92500
Mg443      Mg  0.88438751  0.66972539  0.69975412     1.58000
O444        O  0.92466536  0.72474775  0.71450061    -0.81100
O445        O  0.84622113  0.61093621  0.68758176    -0.75400
O446        O  0.84305894  0.60048031  0.61353438    -0.81200
O447        O  0.71385563  0.66761018  0.64171560    -0.82900
O448        O  0.80632752  0.73061301  0.72335825    -0.81200
C449        C  0.83483341  0.59630568  0.67170555     0.86900
O450        O  0.83783372  0.67806160  0.70386852    -0.88400
O451        O  0.89292923  0.69471769  0.67280945    -0.88500
O452        O  0.89487559  0.74746401  0.67906853    -0.75500
Mg453      Mg  0.79950182  0.59621845  0.63584287     1.58000
O454        O  0.89965356  0.62820494  0.62672585    -0.82900
H455        H  0.71966684  0.58774225  0.67678461    -0.06600
O456        O  0.80660018  0.71480060  0.67974340    -0.88200
H457        H  0.83077435  0.76402925  0.66666825    -0.06500
H458        H  0.81561249  0.63786839  0.72302468    -0.06600
C459        C  0.81355489  0.73402313  0.66556497     0.86900
C460        C  0.74242473  0.60201667  0.66707326     0.87500
C461        C  0.81083762  0.65307559  0.71219486     0.87600
H462        H  0.93010798  0.74293959  0.66098531    -0.06600
O463        O  0.87148182  0.68670240  0.62992957    -0.75600
Mg464      Mg  0.84924225  0.73465817  0.70100176     1.58000
H465        H  0.83367574  0.69323202  0.61473502    -0.06600
C466        C  0.70202239  0.67953323  0.65473093     0.92500
O467        O  0.74869316  0.70143082  0.71153271    -0.82900
C468        C  0.77170845  0.72143362  0.72406222     0.92600
O469        O  0.75385704  0.57825535  0.61264916    -0.82900
Mg470      Mg  0.89662813  0.66234730  0.65020245     1.58200
O471        O  0.71800566  0.68753325  0.67047308    -0.81200
O472        O  0.93409796  0.66201391  0.69638036    -0.82900
C473        C  0.62710424  0.83753753  0.84761259     0.02200
C474        C  0.62920316  0.80438297  0.84808277     0.02100
C475        C  0.64979470  0.79837428  0.83434394    -0.18400
C476        C  0.66999584  0.82525533  0.82062726     0.02200
C477        C  0.66816454  0.85865231  0.82036118     0.02100
C478        C  0.64621267  0.86378275  0.83361704    -0.18400
H479        H  0.64425907  0.88899080  0.83312110     0.04200
H480        H  0.65059716  0.77253796  0.83450816     0.04200
C481        C  0.02324217  0.52780108  0.48991045     0.02200
C482        C  0.02096937  0.49241487  0.48922367     0.02100
C483        C  0.00095665  0.46607441  0.50311092    -0.18400
C484        C  0.98354792  0.47398815  0.51773613     0.02200
C485        C  0.98713216  0.50985199  0.51891894     0.02100
C486        C  0.00598404  0.53570204  0.50465011    -0.18400
H487        H  0.00665498  0.56226361  0.50478992     0.04200
H488        H  0.99851098  0.43871607  0.50241408     0.04200
C489        C  0.47320621  0.49583239  0.48600245     0.02200
C490        C  0.50822923  0.52929353  0.48646197     0.02100
C491        C  0.53442768  0.53403137  0.50026828    -0.18400
C492        C  0.52682530  0.50600212  0.51351257     0.02200
C493        C  0.49164382  0.47248794  0.51294799     0.02100
C494        C  0.46545085  0.46801582  0.49924982    -0.18400
H495        H  0.43866155  0.44234238  0.49881255     0.04200
H496        H  0.56111295  0.55979618  0.50063753     0.04200
C497        C  0.47219762  0.97310716  0.48357671     0.02200
C498        C  0.50879127  0.97792474  0.48471472     0.02100
C499        C  0.53164339  0.99740527  0.49994407    -0.18400
C500        C  0.51974926  0.01318001  0.51379937     0.02200
C501        C  0.48347775  0.00898617  0.51244702     0.02100
C502        C  0.46029861  0.98869327  0.49750868    -0.18400
H503        H  0.43224407  0.98470995  0.49682520     0.04200
H504        H  0.55949388  0.00091509  0.50087496     0.04200
O505        O  0.95752476  0.01333128  0.97396675    -0.88500
C506        C  0.01873374  0.06659698  0.02045944     0.87600
Mg507      Mg  0.91394188  0.95505805  0.97333138     1.58100
O508        O  0.06873633  0.04953292  0.98630387    -0.88200
O509        O  0.00922612  0.05351068  0.95985435    -0.75500
C510        C  0.99643152  0.86866294  0.01069523     0.92600
O511        O  0.93299504  0.99663808  0.01668805    -0.75300
O512        O  0.96424557  0.86539994  0.00893838    -0.82800
Mg513      Mg  0.95539423  0.04614687  0.99660883     1.58000
C514        C  0.13107060  0.00108200  0.00292731     0.92500
O515        O  0.97234272  0.09842849  0.97898096    -0.81100
H516        H  0.08759171  0.05517753  0.96038627    -0.06500
C517        C  0.02305169  0.97133752  0.02772341     0.87500
O518        O  0.95464509  0.93873859  0.96030756    -0.75600
O519        O  0.01158079  0.06311100  0.00376958    -0.88400
O520        O  0.12988035  0.03103254  0.00528083    -0.81200
C521        C  0.12533805  0.13450085  0.01129989     0.92700
C522        C  0.00169637  0.12985877  0.97622445     0.92500
Mg523      Mg  0.04379673  0.95299300  0.99070193     1.58000
O524        O  0.02611259  0.89979642  0.00780214    -0.81100
O525        O  0.06658461  0.00296015  0.97088473    -0.75400
O526        O  0.09801103  0.13131182  0.00163829    -0.81200
O527        O  0.89718975  0.02949335  0.98953569    -0.82900
O528        O  0.90061958  0.86761796  0.98544793    -0.81200
C529        C  0.07531600  0.03699436  0.97218699     0.86900
O530        O  0.98722894  0.93595085  0.98339936    -0.88400
O531        O  0.04075872  0.98525655  0.01332657    -0.88500
O532        O  0.98918507  0.94498874  0.02745603    -0.75500
Mg533      Mg  0.05183476  0.09011733  0.98219971     1.58000
O534        O  0.12782172  0.10594070  0.01584055    -0.82900
H535        H  0.96217572  0.01560867  0.94641555    -0.06600
O536        O  0.92974838  0.94966167  0.00117878    -0.96000
H537        H  0.91183266  0.94446014  0.02726192    -0.06500
H538        H  0.99422846  0.92348641  0.95753953    -0.06600
C539        C  0.92382997  0.96248571  0.01538503     0.86900
C540        C  0.97541390  0.02698927  0.95957878     0.87500
C541        C  0.97929253  0.93201522  0.96679537     0.87600
H542        H  0.03646776  0.98242217  0.04088703    -0.06600
O543        O  0.04260104  0.05913595  0.02725637    -0.75600
Mg544      Mg  0.94673775  0.90895957  0.00498491     1.58000
H545        H  0.00343678  0.07499016  0.02954514    -0.06600
C546        C  0.86787192  0.99941966  0.98527827     0.92500
O547        O  0.86922916  0.89292181  0.97273381    -0.82900
C548        C  0.87207334  0.86440842  0.97689280     0.92600
O549        O  0.03413672  0.13374655  0.97814996    -0.82900
Mg550      Mg  0.08371171  0.04370390  0.01430651     1.58200
O551        O  0.86817062  0.96913875  0.98222995    -0.81200
O552        O  0.10243254  0.97030282  0.99862098    -0.82900
O553        O  0.68939774  0.28172496  0.34196128    -0.88500
C554        C  0.72408641  0.35737163  0.29897645     0.87600
Mg555      Mg  0.63166397  0.23996563  0.34552184     1.58100
O556        O  0.72029891  0.39560780  0.34183238    -0.88200
O557        O  0.73183217  0.33012015  0.35730586    -0.75500
C558        C  0.53739635  0.32896218  0.33662409     0.92600
O559        O  0.65645230  0.26923230  0.30028594    -0.75300
O560        O  0.53689959  0.29869910  0.33310882    -0.82800
Mg561      Mg  0.71253132  0.28702724  0.31450642     1.58000
C562        C  0.67514567  0.46456596  0.34562878     0.92500
O563        O  0.77142437  0.30153243  0.32462426    -0.81100
H564        H  0.73806955  0.40932641  0.36789326    -0.06500
C565        C  0.63206797  0.36460291  0.30807708     0.87500
O566        O  0.62322326  0.27729361  0.36639879    -0.75600
O567        O  0.72675192  0.34481377  0.31406696    -0.88400
O568        O  0.70067351  0.46178238  0.33703824    -0.81200
C569        C  0.79831501  0.46094914  0.31408102     0.92700
C570        C  0.80175886  0.33195912  0.32766617     0.92500
Mg571      Mg  0.62694380  0.37417311  0.34984598     1.58000
O572        O  0.56783903  0.35930615  0.33973954    -0.81100
O573        O  0.68295801  0.39184489  0.36409583    -0.75400
O574        O  0.79648207  0.43045967  0.31898362    -0.81200
O575        O  0.69633506  0.22612356  0.31456301    -0.82900
O576        O  0.54273404  0.23026350  0.34589704    -0.81200
C577        C  0.71506833  0.39982889  0.35822655     0.86900
O578        O  0.61261588  0.31612250  0.35039917    -0.88400
O579        O  0.64994421  0.37880959  0.32240182    -0.88500
O580        O  0.60739219  0.33023965  0.30717575    -0.75500
Mg581      Mg  0.76019301  0.37877626  0.33678107     1.58000
O582        O  0.76939788  0.46458659  0.31456837    -0.82900
H583        H  0.70072232  0.27858599  0.36855859    -0.06600
O584        O  0.61883191  0.26465815  0.32258769    -0.88200
H585        H  0.60123664  0.25126036  0.29648590    -0.06500
H586        H  0.61219901  0.31547644  0.37804299    -0.06600
C587        C  0.62421706  0.26079235  0.30616735     0.86900
C588        C  0.70724371  0.29575213  0.35630955     0.87500
C589        C  0.61552840  0.30346051  0.36541385     0.87600
H590        H  0.63862725  0.38160561  0.29576599    -0.06600
O591        O  0.71608795  0.38328679  0.29782366    -0.75600
Mg592      Mg  0.57898764  0.28177031  0.32781662     1.58000
H593        H  0.72772825  0.34534599  0.28642733    -0.06600
C594        C  0.66609639  0.19672825  0.31901242     0.92500
O595        O  0.56967299  0.19566784  0.34958572    -0.82900
C596        C  0.54092938  0.19965625  0.35051905     0.92600
O597        O  0.80229286  0.36209583  0.33147224    -0.82900
Mg598      Mg  0.70769974  0.42032274  0.31879454     1.58200
O599        O  0.63970185  0.19823095  0.32752479    -0.81200
O600        O  0.64387690  0.43589250  0.34969625    -0.82900
O601        O  0.28088429  0.69345815  0.66256404    -0.88500
C602        C  0.36327299  0.72412392  0.70068087     0.87600
Mg603      Mg  0.23559914  0.63751444  0.66170042     1.58100
O604        O  0.38715374  0.71057389  0.65561415    -0.88200
O605        O  0.32555853  0.73181456  0.64417397    -0.75500
C606        C  0.30711936  0.52641256  0.66474450     0.92600
O607        O  0.27421233  0.66401364  0.70437131    -0.75300
O608        O  0.27885895  0.52867113  0.66982451    -0.82800
Mg609      Mg  0.29300751  0.71975329  0.68935245     1.58000
C610        C  0.44752477  0.65479935  0.64908893     0.92500
O611        O  0.31153700  0.77924622  0.67827830    -0.81100
H612        H  0.39626082  0.72487835  0.62890621    -0.06500
C613        C  0.35807023  0.62354773  0.69071834     0.87500
O614        O  0.26369288  0.62244971  0.63836099    -0.75600
O615        O  0.34897358  0.72869563  0.68660658    -0.88400
O616        O  0.44847087  0.68295522  0.65675831    -0.81200
C617        C  0.46493680  0.78605537  0.67813005     0.92700
C618        C  0.34248390  0.80757177  0.67333316     0.92500
Mg619      Mg  0.35666801  0.61403372  0.64902679     1.58000
O620        O  0.33802822  0.55511541  0.66020670    -0.81100
O621        O  0.37624275  0.66974398  0.63388975    -0.75400
O622        O  0.43616718  0.78957774  0.67596866    -0.81200
O623        O  0.23271477  0.70863569  0.69226228    -0.82900
O624        O  0.21272074  0.54328794  0.66223471    -0.81200
C625        C  0.38729784  0.70294709  0.63912766     0.86900
O626        O  0.30052224  0.60511421  0.65153523    -0.88400
O627        O  0.36840977  0.64016303  0.67582190    -0.88500
O628        O  0.32377861  0.60098195  0.69395330    -0.75500
Mg629      Mg  0.37891844  0.75664675  0.66171641     1.58000
O630        O  0.46252412  0.75426256  0.67777846    -0.82900
H631        H  0.27074110  0.70361228  0.63680052    -0.06600
O632        O  0.26275997  0.62288303  0.68270221    -0.88200
H633        H  0.25495659  0.60905514  0.70948801    -0.06500
H634        H  0.29368238  0.60392988  0.62412420    -0.06600
C635        C  0.26328316  0.63078366  0.69919969     0.86900
C636        C  0.29124038  0.70960898  0.64754673     0.87500
C637        C  0.28615114  0.60979958  0.63751146     0.87600
H638        H  0.37853570  0.62931473  0.70145232    -0.06600
O639        O  0.38554664  0.71126229  0.69995557    -0.75600
Mg640      Mg  0.27041336  0.57654406  0.67637214     1.58000
H641        H  0.35574067  0.73018838  0.71402119    -0.06600
C642        C  0.20214437  0.67787977  0.69010441     0.92500
O643        O  0.18700999  0.57926086  0.66110957    -0.82900
C644        C  0.18409881  0.54726444  0.66077831     0.92600
O645        O  0.37019024  0.80455314  0.66800226    -0.82900
Mg646      Mg  0.41389057  0.69594197  0.67691121     1.58200
O647        O  0.20155352  0.64990599  0.68241727    -0.81200
O648        O  0.41678054  0.62436832  0.64661645    -0.82900
C649        C  0.98187256  0.64941942  0.68705181    -0.20000
C650        C  0.99792117  0.63651522  0.67375502     0.36200
C651        C  0.03315712  0.64002072  0.67710607    -0.26000
C652        C  0.05319388  0.65674205  0.69335305     0.02700
C653        C  0.03720227  0.66902071  0.70681996     0.27500
C654        C  0.00173137  0.66504186  0.70361393    -0.25100
N655        N  0.97907241  0.62050599  0.65668244    -0.82500
H656        H  0.04546201  0.63056896  0.66670045     0.13300
C657        C  0.09148127  0.66237873  0.69567853     0.02600
N658        N  0.05733432  0.68597636  0.72357552    -0.81000
H659        H  0.99017069  0.67538111  0.71395195     0.18100
C660        C  0.12243040  0.69871383  0.69548379    -0.25900
C661        C  0.15933554  0.70496788  0.69531716     0.36100
C662        C  0.16525818  0.67404636  0.69509633    -0.19900
C663        C  0.13402904  0.63780364  0.69676923    -0.25200
C664        C  0.09729427  0.63171260  0.69708720     0.27500
H665        H  0.11769311  0.72223100  0.69472586     0.13300
N666        N  0.19047942  0.74243387  0.69430822    -0.82400
H667        H  0.13821818  0.61393850  0.69711374     0.18100
N668        N  0.06575111  0.59449270  0.69836739    -0.81000
H669        H  0.18111581  0.76173124  0.69368160     0.33800
H670        H  0.20543112  0.74772184  0.70668186     0.38300
H671        H  0.07470719  0.57493350  0.69934076     0.33700
H672        H  0.05181220  0.59272902  0.71072809     0.30400
H673        H  0.04194283  0.69398130  0.73199964     0.33700
H674        H  0.06014111  0.66566029  0.73088571     0.30400
H675        H  0.99649686  0.63645038  0.64583088     0.38300
H676        H  0.97521251  0.59356215  0.65566414     0.33800
C677        C  0.66690847  0.68102883  0.65179113    -0.20000
C678        C  0.64701127  0.68519094  0.66667927     0.36200
C679        C  0.61103695  0.68001801  0.66374261    -0.26000
C680        C  0.59425508  0.67071287  0.64624813     0.02700
C681        C  0.61426171  0.66793061  0.63117396     0.27500
C682        C  0.65044503  0.67337438  0.63406308    -0.25100
N683        N  0.66259319  0.69366998  0.68493042    -0.82500
H684        H  0.59581678  0.68273398  0.67529190     0.13300
C685        C  0.55591488  0.66475169  0.64404694     0.02600
N686        N  0.59772327  0.65949734  0.61304482    -0.81000
H687        H  0.66542637  0.67065386  0.62245579     0.18100
C688        C  0.55147608  0.69543928  0.64002245    -0.25900
C689        C  0.51586710  0.69222444  0.64024806     0.36100
C690        C  0.48395533  0.65742346  0.64457225    -0.19900
C691        C  0.48834302  0.62617394  0.64750835    -0.25200
C692        C  0.52412488  0.62959359  0.64745390     0.27500
H693        H  0.57609008  0.72231102  0.63734273     0.13300
N694        N  0.51211419  0.72442851  0.63661683    -0.82400
H695        H  0.46411229  0.59955959  0.65101049     0.18100
N696        N  0.52854290  0.59802703  0.65175930    -0.81000
H697        H  0.49626790  0.71910144  0.62454207     0.33800
H698        H  0.53824088  0.74787603  0.63395742     0.38300
H699        H  0.50250654  0.57439786  0.65434979     0.33700
H700        H  0.53939650  0.59199832  0.64004864     0.30400
H701        H  0.61627058  0.65878366  0.60341291     0.33700
H702        H  0.57444686  0.63259424  0.61343633     0.30400
H703        H  0.64443482  0.67220335  0.69377711     0.38300
H704        H  0.66380902  0.71839342  0.68925298     0.33800
C705        C  0.75825574  0.73632469  0.73926947    -0.20000
C706        C  0.71968826  0.72080552  0.74330435     0.36200
C707        C  0.70789493  0.73830565  0.75616292    -0.26000
C708        C  0.73372255  0.77120803  0.76523237     0.02700
C709        C  0.77232259  0.78615900  0.76179574     0.27500
C710        C  0.78418264  0.76853730  0.74894361    -0.25100
N711        N  0.69226566  0.68704672  0.73453244    -0.82500
H712        H  0.67826482  0.72613858  0.75906753     0.13300
C713        C  0.71992932  0.78876495  0.77882871     0.02600
N714        N  0.79928410  0.81952093  0.77117369    -0.81000
H715        H  0.81380812  0.78081912  0.74604302     0.18100
C716        C  0.72980609  0.78989150  0.79747652    -0.25900
C717        C  0.71633926  0.80418494  0.81119987     0.36100
C718        C  0.69055234  0.81617787  0.80635304    -0.19900
C719        C  0.68138200  0.81587395  0.78760352    -0.25200
C720        C  0.69627059  0.80315978  0.77376541     0.27500
H721        H  0.74824426  0.77941026  0.80146356     0.13300
N722        N  0.72951951  0.80598970  0.82982157    -0.82400
H723        H  0.66179188  0.82493917  0.78365320     0.18100
N724        N  0.68656920  0.80523508  0.75485443    -0.81000
H725        H  0.75873624  0.82213002  0.82955893     0.33800
H726        H  0.72092538  0.82041521  0.83851071     0.38300
H727        H  0.69615985  0.83334367  0.75186090     0.33700
H728        H  0.70049511  0.79687554  0.74568116     0.30400
H729        H  0.82650579  0.82684795  0.76721492     0.33700
H730        H  0.79497856  0.84126239  0.76687318     0.30400
H731        H  0.67760320  0.66730676  0.74483699     0.38300
H732        H  0.67331322  0.69260704  0.72758233     0.33800
C733        C  0.69647971  0.56901794  0.59810089    -0.20000
C734        C  0.67641079  0.58783213  0.59379322     0.36200
C735        C  0.64811619  0.57325713  0.58031311    -0.26000
C736        C  0.63925941  0.54060222  0.57065771     0.02700
C737        C  0.65951314  0.52206083  0.57446030     0.27500
C738        C  0.68806071  0.53651408  0.58810069    -0.25100
N739        N  0.68525450  0.62229718  0.60281017    -0.82500
H740        H  0.63294811  0.58775346  0.57712004     0.13300
C741        C  0.60908741  0.52728455  0.55637325     0.02600
N742        N  0.65077715  0.48854035  0.56456885    -0.81000
H743        H  0.70333369  0.52207858  0.59111476     0.18100
C744        C  0.61898237  0.53011272  0.53762183    -0.25900
C745        C  0.59256732  0.52287478  0.52354732     0.36100
C746        C  0.55544086  0.51292794  0.52813041    -0.19900
C747        C  0.54546382  0.50968912  0.54689720    -0.25200
C748        C  0.57142979  0.51601712  0.56102129     0.27500
H749        H  0.64767423  0.53891581  0.53387069     0.13300
N750        N  0.60356429  0.52559161  0.50457824    -0.82400
H751        H  0.51712658  0.50224408  0.55066699     0.18100
N752        N  0.55849936  0.51089706  0.57984617    -0.81000
H753        H  0.61363285  0.50714047  0.50244360     0.33800
H754        H  0.62559523  0.55271725  0.50223511     0.38300
H755        H  0.53732665  0.48305163  0.58127466     0.33700
H756        H  0.57940971  0.51454487  0.58915847     0.30400
H757        H  0.66804528  0.47819055  0.56897174     0.33700
H758        H  0.62334599  0.46834140  0.56798075     0.30400
H759        H  0.71238787  0.64233672  0.59885431     0.38300
H760        H  0.66763253  0.63205247  0.59818369     0.33800
C761        C  0.89169104  0.59184811  0.60008723    -0.20000
C762        C  0.87859443  0.58404513  0.58171023     0.36200
C763        C  0.89305437  0.56784617  0.56946647    -0.26000
C764        C  0.92001061  0.55857386  0.57530909     0.02700
C765        C  0.93283135  0.56599031  0.59375929     0.27500
C766        C  0.91884971  0.58277674  0.60583108    -0.25100
N767        N  0.85147694  0.59346248  0.57526203    -0.82500
H768        H  0.88346508  0.56281397  0.55524856     0.13300
C769        C  0.93641283  0.54344263  0.56174015     0.02600
N770        N  0.95994520  0.55630767  0.60018652    -0.81000
H771        H  0.92876286  0.58813335  0.61999483     0.18100
C772        C  0.97526886  0.56359507  0.55874508    -0.25900
C773        C  0.99240081  0.55240494  0.54550081     0.36100
C774        C  0.97028457  0.52080059  0.53428297    -0.19900
C775        C  0.93151651  0.50003073  0.53755187    -0.25200
C776        C  0.91444960  0.51022905  0.55145216     0.27500
H777        H  0.99257196  0.58865500  0.56669949     0.13300
N778        N  0.03245350  0.57316406  0.54417346    -0.82400
H779        H  0.91423870  0.47553073  0.52924474     0.18100
N780        N  0.87512129  0.48590503  0.55483489    -0.81000
H781        H  0.04029213  0.58604816  0.53126525     0.33800
H782        H  0.04269803  0.55469207  0.54560612     0.38300
H783        H  0.87136241  0.45973848  0.55847844     0.33700
H784        H  0.86596361  0.49462804  0.56621429     0.30400
H785        H  0.96667523  0.56383110  0.61406068     0.33700
H786        H  0.94751751  0.52724487  0.59958474     0.30400
H787        H  0.86313977  0.61189829  0.56413154     0.38300
H788        H  0.82827644  0.56906795  0.57036860     0.33800
C789        C  0.67710651  0.98624951  0.66557850    -0.20000
C790        C  0.65100439  0.96906331  0.65101145     0.36200
C791        C  0.61755053  0.93551737  0.65442793    -0.26000
C792        C  0.60989135  0.91860691  0.67190052     0.02700
C793        C  0.63669478  0.93419525  0.68605879     0.27500
C794        C  0.67006237  0.96766723  0.68272585    -0.25100
N795        N  0.65775590  0.98612075  0.63303813    -0.82500
H796        H  0.59690108  0.92278395  0.64352765     0.13300
C797        C  0.57297074  0.88534234  0.67533787     0.02600
N798        N  0.62928886  0.91670955  0.70395549    -0.81000
H799        H  0.68973761  0.98022069  0.69397804     0.18100
C800        C  0.57064066  0.85090275  0.67867316    -0.25900
C801        C  0.53581039  0.81833991  0.68068250     0.36100
C802        C  0.50245263  0.82021181  0.67945168    -0.19900
C803        C  0.50524295  0.85535418  0.67708560    -0.25200
C804        C  0.54015598  0.88788472  0.67498105     0.27500
H805        H  0.59599771  0.84911388  0.67917331     0.13300
N806        N  0.53465974  0.78344234  0.68346552    -0.82400
H807        H  0.48010171  0.85743350  0.67619399     0.18100
N808        N  0.54248945  0.92344652  0.67214468    -0.81000
H809        H  0.54982711  0.78557597  0.69544757     0.33800
H810        H  0.54805217  0.77900715  0.67228903     0.38300
H811        H  0.51577100  0.92051252  0.67205135     0.33700
H812        H  0.55665590  0.94035607  0.68347341     0.30400
H813        H  0.65197240  0.93170655  0.71285875     0.33700
H814        H  0.60656883  0.91784249  0.70966055     0.30400
H815        H  0.63514743  0.97047647  0.62419132     0.38300
H816        H  0.68076004  0.98547697  0.62736859     0.33800
C817        C  0.97153255  0.34718102  0.67314765    -0.20000
C818        C  0.97701699  0.37021086  0.65755744     0.36200
C819        C  0.01175442  0.40276017  0.65503032    -0.26000
C820        C  0.04063792  0.41318394  0.66789065     0.02700
C821        C  0.03431241  0.39221910  0.68420445     0.27500
C822        C  0.99983385  0.35928604  0.68664235    -0.25100
N823        N  0.94762540  0.36026448  0.64420754    -0.82500
H824        H  0.01652945  0.41998783  0.64289426     0.13300
C825        C  0.07682688  0.44727601  0.66448493     0.02600
N826        N  0.06275847  0.40461426  0.69826429    -0.81000
H827        H  0.99576465  0.34225197  0.69876860     0.18100
C828        C  0.08037181  0.48169225  0.66906681    -0.25900
C829        C  0.11459214  0.51478516  0.66699474     0.36100
C830        C  0.14622381  0.51359283  0.66022931    -0.19900
C831        C  0.14209079  0.47896657  0.65494331    -0.25200
C832        C  0.10748426  0.44574790  0.65682093     0.27500
H833        H  0.05657201  0.48279051  0.67471512     0.13300
N834        N  0.11735058  0.54925874  0.67268709    -0.82400
H835        H  0.16601510  0.47773876  0.64960189     0.18100
N836        N  0.10319194  0.41068780  0.65073636    -0.81000
H837        H  0.11003737  0.54684477  0.68665865     0.33800
H838        H  0.09784008  0.55305788  0.66513925     0.38300
H839        H  0.12822537  0.41458018  0.64506288     0.33700
H840        H  0.09767786  0.39355747  0.66230092     0.30400
H841        H  0.05325237  0.38646157  0.70959556     0.33700
H842        H  0.08560842  0.40337555  0.69286324     0.30400
H843        H  0.92563679  0.36122714  0.65089307     0.38300
H844        H  0.95647766  0.37992954  0.63352116     0.33800
C845        C  0.77278299  0.04269244  0.74399727    -0.20000
C846        C  0.75133231  0.00487802  0.73846579     0.36200
C847        C  0.73709090  0.97656538  0.75180957    -0.26000
C848        C  0.74364615  0.98487242  0.77063488     0.02700
C849        C  0.76659727  0.02236308  0.77627377     0.27500
C850        C  0.78131643  0.05107618  0.76281385    -0.25100
N851        N  0.74414044  0.99531333  0.71919891    -0.82500
H852        H  0.71999893  0.94769467  0.74755200     0.13300
C853        C  0.72435368  0.95355845  0.78397185     0.02600
N854        N  0.77414126  0.03110153  0.79557667    -0.81000
H855        H  0.79821952  0.07996514  0.76703654     0.18100
C856        C  0.74546568  0.94166220  0.79424839    -0.25900
C857        C  0.72788827  0.90999968  0.80583564     0.36100
C858        C  0.68840402  0.88934871  0.80674080    -0.19900
C859        C  0.66745799  0.90108535  0.79628243    -0.25200
C860        C  0.68472315  0.93315224  0.78524719     0.27500
H861        H  0.77573146  0.95709820  0.79316452     0.13300
N862        N  0.74991284  0.89911990  0.81685431    -0.82400
H863        H  0.63714417  0.88570236  0.79717209     0.18100
N864        N  0.66103503  0.94423754  0.77578631    -0.81000
H865        H  0.77847953  0.91712464  0.81453923     0.33800
H866        H  0.74495972  0.90211447  0.83075151     0.38300
H867        H  0.64558606  0.94891624  0.78582167     0.33700
H868        H  0.67649897  0.96965206  0.76891751     0.30400
H869        H  0.79147889  0.05987134  0.79740583     0.33700
H870        H  0.74871745  0.02386185  0.80204019     0.30400
H871        H  0.76984045  0.00337379  0.71282853     0.38300
H872        H  0.72777834  0.96639616  0.71749175     0.33800
C873        C  0.68387303  0.11851893  0.60140340    -0.20000
C874        C  0.64817932  0.08756875  0.60561214     0.36200
C875        C  0.62028207  0.07243813  0.59180549    -0.26000
C876        C  0.62727954  0.08652616  0.57367013     0.02700
C877        C  0.66254675  0.11794606  0.56958764     0.27500
C878        C  0.69007739  0.13390652  0.58353123    -0.25100
N879        N  0.64004462  0.07169532  0.62388774    -0.82500
H880        H  0.59307231  0.04881918  0.59510295     0.13300
C881        C  0.59807154  0.06730434  0.55896550     0.02600
N882        N  0.67081283  0.13277973  0.55111693    -0.81000
H883        H  0.71730659  0.15737246  0.58011706     0.18100
C884        C  0.58668820  0.08797544  0.54798110    -0.25900
C885        C  0.56150781  0.07158675  0.53317153     0.36100
C886        C  0.54582009  0.03284136  0.52957778    -0.19900
C887        C  0.55657081  0.01203131  0.54083892    -0.25200
C888        C  0.58260071  0.02874852  0.55532736     0.27500
H889        H  0.59832169  0.11754120  0.55061536     0.13300
N890        N  0.55440065  0.09569366  0.52161394    -0.82400
H891        H  0.54488009  0.98248668  0.53809772     0.18100
N892        N  0.59400951  0.00682121  0.56606981    -0.81000
H893        H  0.53924552  0.10493181  0.52941401     0.33800
H894        H  0.53835089  0.08179566  0.51005386     0.38300
H895        H  0.57986989  0.97896733  0.56173657     0.33700
H896        H  0.62245453  0.01701018  0.56349218     0.30400
H897        H  0.69783043  0.15590868  0.55039613     0.33700
H898        H  0.67054805  0.11230107  0.54253548     0.30400
H899        H  0.65367104  0.05625212  0.62543100     0.38300
H900        H  0.61147925  0.05240680  0.62521748     0.33800
C901        C  0.87589948  0.28861365  0.59323408    -0.20000
C902        C  0.85520965  0.30615653  0.58814079     0.36200
C903        C  0.87035081  0.33560710  0.57516760    -0.26000
C904        C  0.90586057  0.34812880  0.56737771     0.02700
C905        C  0.92633113  0.33044228  0.57235076     0.27500
C906        C  0.91126386  0.30107543  0.58526484    -0.25100
N907        N  0.81987787  0.29538249  0.59683609    -0.82500
H908        H  0.85497628  0.34966091  0.57151905     0.13300
C909        C  0.92266688  0.38121184  0.55487870     0.02600
N910        N  0.96273313  0.34294909  0.56449011    -0.81000
H911        H  0.92750549  0.28819763  0.58939113     0.18100
C912        C  0.95457170  0.41386586  0.56106150    -0.25900
C913        C  0.97408445  0.44485280  0.54937010     0.36100
C914        C  0.96145564  0.44361597  0.53119916    -0.19900
C915        C  0.92889370  0.41156775  0.52514443    -0.25200
C916        C  0.90931976  0.38030100  0.53667900     0.27500
H917        H  0.96502115  0.41488529  0.57493483     0.13300
N918        N  0.00750548  0.47700614  0.55576003    -0.82400
H919        H  0.91912037  0.41051114  0.51111522     0.18100
N920        N  0.87690205  0.34812967  0.52921137    -0.81000
H921        H  0.02645273  0.46847783  0.55980785     0.33800
H922        H  0.00069046  0.48732572  0.56742407     0.38300
H923        H  0.88576489  0.33853972  0.51800434     0.33700
H924        H  0.86498891  0.32614772  0.53864809     0.30400
H925        H  0.97440357  0.32743527  0.56974910     0.33700
H926        H  0.95917858  0.33764601  0.55028599     0.30400
H927        H  0.82507899  0.30229921  0.61084873     0.38300
H928        H  0.80827423  0.31090425  0.59150313     0.33800
C929        C  0.09624295  0.82938166  0.80742980    -0.20000
C930        C  0.08402173  0.79716196  0.79628612     0.36200
C931        C  0.05794404  0.78951404  0.78212968    -0.26000
C932        C  0.04337666  0.81319451  0.77848059     0.02700
C933        C  0.05619375  0.84605424  0.78927537     0.27500
C934        C  0.08193516  0.85332955  0.80372081    -0.25100
N935        N  0.09808686  0.77195122  0.79870039    -0.82500
H936        H  0.04849837  0.76434561  0.77400294     0.13300
C937        C  0.01379210  0.80156140  0.76390558     0.02600
N938        N  0.04432692  0.87290045  0.78588233    -0.81000
H939        H  0.09110892  0.87818992  0.81204809     0.18100
C940        C  0.97740160  0.79302423  0.76890682    -0.25900
C941        C  0.94759278  0.77743483  0.75607158     0.36100
C942        C  0.95436333  0.77061700  0.73771692    -0.19900
C943        C  0.99098763  0.77994846  0.73265551    -0.25200
C944        C  0.02069113  0.79540579  0.74548963     0.27500
H945        H  0.97195402  0.79709739  0.78312034     0.13300
N946        N  0.91019836  0.76666959  0.76190607    -0.82400
H947        H  0.99630738  0.77446328  0.71866022     0.18100
N948        N  0.05773240  0.80414627  0.74001388    -0.81000
H949        H  0.91001800  0.77365582  0.77578021     0.33800
H950        H  0.89421042  0.73754449  0.76112584     0.38300
H951        H  0.05811404  0.79760564  0.72608597     0.33700
H952        H  0.07518782  0.83304184  0.74125056     0.30400
H953        H  0.06822278  0.89831649  0.78266049     0.33700
H954        H  0.02701218  0.86586890  0.77430479     0.30400
H955        H  0.12733189  0.78711291  0.79833201     0.38300
H956        H  0.08941577  0.75879265  0.81151527     0.33800
C957        C  0.96562286  0.21718813  0.73687244    -0.20000
C958        C  0.98862364  0.25629479  0.73979823     0.36200
C959        C  0.01825923  0.26960444  0.75257911    -0.26000
C960        C  0.02600310  0.24529500  0.76269310     0.02700
C961        C  0.00368744  0.20642285  0.75965634     0.27500
C962        C  0.97367112  0.19281205  0.74691857    -0.25100
N963        N  0.98138613  0.28262623  0.73024797    -0.82500
H964        H  0.03477437  0.29936358  0.75513793     0.13300
C965        C  0.05625840  0.26131770  0.77705401     0.02600
N966        N  0.01165364  0.18091331  0.76947550    -0.81000
H967        H  0.95653050  0.16296949  0.74481627     0.18100
C968        C  0.04802871  0.24818952  0.79535474    -0.25900
C969        C  0.07460354  0.26468245  0.80951389     0.36100
C970        C  0.11014497  0.29582786  0.80559916    -0.19900
C971        C  0.11875697  0.30854838  0.78728491    -0.25200
C972        C  0.09248237  0.29129561  0.77294185     0.27500
H973        H  0.02045672  0.22529788  0.79877087     0.13300
N974        N  0.06504408  0.24866325  0.82764981    -0.82400
H975        H  0.14619043  0.33202442  0.78418056     0.18100
N976        N  0.10246976  0.30401443  0.75420052    -0.81000
H977        H  0.06602339  0.26859909  0.83684128     0.33800
H978        H  0.08494969  0.24142872  0.83173383     0.38300
H979        H  0.13003522  0.32622431  0.75352495     0.33700
H980        H  0.10168006  0.28212594  0.74660222     0.30400
H981        H  0.99271812  0.15333808  0.76574093     0.33700
H982        H  0.03818354  0.18621785  0.76534088     0.30400
H983        H  0.95615711  0.27932699  0.73531960     0.38300
H984        H  0.00192252  0.31010285  0.73328016     0.33800
C985        C  0.30344078  0.48909872  0.66323502    -0.20000
C986        C  0.26850552  0.45708869  0.65910979     0.36200
C987        C  0.26655160  0.42245082  0.65702783    -0.26000
C988        C  0.29869422  0.41931303  0.65856301     0.02700
C989        C  0.33348938  0.45099960  0.66263225     0.27500
C990        C  0.33556582  0.48569517  0.66486849    -0.25100
N991        N  0.23540249  0.45995198  0.65645111    -0.82500
H992        H  0.24001532  0.39785651  0.65375442     0.13300
C993        C  0.29553494  0.38255906  0.65571586     0.02600
N994        N  0.36645923  0.44768653  0.66448911    -0.81000
H995        H  0.36233785  0.51014414  0.66794303     0.18100
C996        C  0.31295666  0.37719010  0.64037128    -0.25900
C997        C  0.31223789  0.34320569  0.63763558     0.36100
C998        C  0.29361795  0.31397227  0.65068397    -0.19900
C999        C  0.27478063  0.31922325  0.66562424    -0.25200
C1000       C  0.27585209  0.35331300  0.66834824     0.27500
H1001       H  0.32766725  0.39991418  0.63064531     0.13300
N1002       N  0.33157710  0.33905118  0.62208785    -0.82400
H1003       H  0.26038412  0.29718845  0.67571499     0.18100
N1004       N  0.25803178  0.35879647  0.68417708    -0.81000
H1005       H  0.34540579  0.36388563  0.61450996     0.33800
H1006       H  0.31133055  0.31920415  0.61326272     0.38300
H1007       H  0.24475418  0.33448990  0.69217812     0.33700
H1008       H  0.27902205  0.37927438  0.69247206     0.30400
H1009       H  0.38985998  0.47367382  0.66739540     0.33700
H1010       H  0.36254893  0.43062135  0.67593009     0.30400
H1011       H  0.23947761  0.47600694  0.64457501     0.38300
H1012       H  0.21210546  0.43372040  0.65383139     0.33800
C1013       C  0.36222248  0.02385113  0.67707522    -0.20000
C1014       C  0.37423189  0.01172165  0.66151961     0.36200
C1015       C  0.37212601  0.97682179  0.66207711    -0.26000
C1016       C  0.35988456  0.95473237  0.67799686     0.02700
C1017       C  0.35278518  0.96880570  0.69425550     0.27500
C1018       C  0.35369415  0.00319362  0.69360682    -0.25100
N1019       N  0.38745406  0.03420578  0.64506455    -0.82500
H1020       H  0.37924897  0.96634335  0.64991857     0.13300
C1021       C  0.35469004  0.91686053  0.67726570     0.02600
N1022       N  0.34477441  0.94821071  0.71128935    -0.81000
H1023       H  0.34588253  0.01286290  0.70582185     0.18100
C1024       C  0.38610816  0.91262040  0.67890182    -0.25900
C1025       C  0.38281960  0.87726767  0.67766234     0.36100
C1026       C  0.34712407  0.84545087  0.67446863    -0.19900
C1027       C  0.31562184  0.84994386  0.67281905    -0.25200
C1028       C  0.31912385  0.88549991  0.67399247     0.27500
H1029       H  0.41330262  0.93708163  0.68124436     0.13300
N1030       N  0.41554978  0.87363577  0.67996688    -0.82400
H1031       H  0.28833528  0.82575771  0.67030334     0.18100
N1032       N  0.28707889  0.89009146  0.67117873    -0.81000
H1033       H  0.43951276  0.89978478  0.68173269     0.33800
H1034       H  0.41218665  0.85877567  0.69220208     0.38300
H1035       H  0.26325222  0.86434993  0.66839432     0.33700
H1036       H  0.28172459  0.89968605  0.68351436     0.30400
H1037       H  0.34112612  0.96296599  0.72205394     0.33700
H1038       H  0.31932683  0.92337173  0.70979477     0.30400
H1039       H  0.39455827  0.02083739  0.63490331     0.38300
H1040       H  0.41216526  0.05867664  0.64851222     0.33800
C1041       C  0.17007167  0.90090148  0.80742643    -0.20000
C1042       C  0.17820753  0.89423626  0.78937964     0.36200
C1043       C  0.18890149  0.92218566  0.77580725    -0.26000
C1044       C  0.19223809  0.95695353  0.77993969     0.02700
C1045       C  0.18413226  0.96364163  0.79813238     0.27500
C1046       C  0.17298882  0.93543870  0.81156195    -0.25100
N1047       N  0.17617522  0.85935349  0.78500778    -0.82500
H1048       H  0.19548961  0.91718535  0.76197230     0.13300
C1049       C  0.20694780  0.98628903  0.76531140     0.02600
N1050       N  0.18759286  0.99867787  0.80364515    -0.81000
H1051       H  0.16691776  0.94067282  0.82546029     0.18100
C1052       C  0.18344595  0.99760770  0.75692068    -0.25900
C1053       C  0.19671553  0.02464991  0.74279889     0.36100
C1054       C  0.23413502  0.04013015  0.73645703    -0.19900
C1055       C  0.25742990  0.02861592  0.74499679    -0.25200
C1056       C  0.24442000  0.00233751  0.75943468     0.27500
H1057       H  0.15459637  0.98534277  0.76141491     0.13300
N1058       N  0.17129838  0.03504125  0.73494554    -0.82400
H1059       H  0.28631831  0.04069776  0.74059862     0.18100
N1060       N  0.26913053  0.99184440  0.76823565    -0.81000
H1061       H  0.18152309  0.06340348  0.73746141     0.33800
H1062       H  0.16997178  0.03056618  0.72067139     0.38300
H1063       H  0.29582856  0.00603993  0.76224630     0.33700
H1064       H  0.27231444  0.00054780  0.78198610     0.30400
H1065       H  0.20831048  0.01018092  0.81383903     0.33700
H1066       H  0.19674504  0.01792453  0.79281981     0.30400
H1067       H  0.19658666  0.85760059  0.79285118     0.38300
H1068       H  0.18290226  0.85878031  0.77112725     0.33800
C1069       C  0.25036164  0.22439431  0.73459257    -0.20000
C1070       C  0.24599919  0.21052937  0.75288397     0.36200
C1071       C  0.23136909  0.22396715  0.76660121    -0.26000
C1072       C  0.21974046  0.24977973  0.76228309     0.02700
C1073       C  0.22304737  0.26269791  0.74397207     0.27500
C1074       C  0.23875568  0.25034106  0.73043666    -0.25100
N1075       N  0.25744391  0.18391198  0.75765354    -0.82500
H1076       H  0.22902287  0.21435078  0.78074329     0.13300
C1077       C  0.20641385  0.26517245  0.77716009     0.02600
N1078       N  0.21040203  0.28840608  0.73922559    -0.81000
H1079       H  0.24128508  0.26057240  0.71640519     0.18100
C1080       C  0.22795512  0.30348324  0.78099308    -0.25900
C1081       C  0.21706371  0.32023476  0.79459502     0.36100
C1082       C  0.18430964  0.29840371  0.80498633    -0.19900
C1083       C  0.16260636  0.26003679  0.80122502    -0.25200
C1084       C  0.17285078  0.24318613  0.78725395     0.27500
H1085       H  0.25344730  0.32063583  0.77326169     0.13300
N1086       N  0.23911241  0.35967548  0.79766202    -0.82400
H1087       H  0.13740345  0.24302802  0.80916339     0.18100
N1088       N  0.14826939  0.20411388  0.78362312    -0.81000
H1089       H  0.24053636  0.37328138  0.78523561     0.33800
H1090       H  0.26625088  0.36592338  0.80118852     0.38300
H1091       H  0.12241178  0.20076843  0.77953340     0.33700
H1092       H  0.15763222  0.19480391  0.77255959     0.30400
H1093       H  0.21489696  0.29534935  0.72519346     0.33700
H1094       H  0.18142672  0.27469865  0.74129635     0.30400
H1095       H  0.23850413  0.15850631  0.75148548     0.38300
H1096       H  0.25501356  0.17893727  0.77190181     0.33800
C1097       C  0.38999178  0.10155631  0.58965462    -0.20000
C1098       C  0.42185794  0.12590109  0.57898032     0.36200
C1099       C  0.43641872  0.11087846  0.56603940    -0.26000
C1100       C  0.41957684  0.07216609  0.56313472     0.02700
C1101       C  0.38721157  0.04800758  0.57334685     0.27500
C1102       C  0.37306740  0.06284531  0.58652845    -0.25100
N1103       N  0.44003547  0.16566624  0.58157790    -0.82500
H1104       H  0.46142886  0.12945253  0.55830791     0.13300
C1105       C  0.43663396  0.05704413  0.54984813     0.02600
N1106       N  0.36887059  0.00835515  0.57033638    -0.81000
H1107       H  0.34862474  0.04387071  0.59450233     0.18100
C1108       C  0.44717662  0.03148421  0.55641756    -0.25900
C1109       C  0.46243450  0.01551685  0.54456516     0.36100
C1110       C  0.46890435  0.02620368  0.52585297    -0.19900
C1111       C  0.45870243  0.05189183  0.51926175    -0.25200
C1112       C  0.44211469  0.06692888  0.53081151     0.27500
H1113       H  0.44293782  0.02333816  0.57085147     0.13300
N1114       N  0.46995745  0.98741081  0.55143851    -0.82400
H1115       H  0.46288971  0.05971717  0.50477901     0.18100
N1116       N  0.43030793  0.09103798  0.52249386    -0.81000
H1117       H  0.44491324  0.96537036  0.55655527     0.33800
H1118       H  0.48869592  0.99878776  0.56249074     0.38300
H1119       H  0.41121508  0.07589036  0.51201279     0.33700
H1120       H  0.41551162  0.09814047  0.53173971     0.30400
H1121       H  0.34562725  0.99437609  0.57901663     0.33700
H1122       H  0.35867497  0.00325702  0.55678222     0.30400
H1123       H  0.45211126  0.17156839  0.59475065     0.38300
H1124       H  0.46205444  0.17948274  0.57219078     0.33800
C1125       C  0.48133580  0.44150025  0.52640483    -0.20000
C1126       C  0.44944773  0.42886030  0.53767758     0.36200
C1127       C  0.44040472  0.39999517  0.55037976    -0.26000
C1128       C  0.46324058  0.38394416  0.55262681     0.02700
C1129       C  0.49568239  0.39686289  0.54140808     0.27500
C1130       C  0.50375439  0.42487926  0.52818708    -0.25100
N1131       N  0.42667676  0.44601390  0.53661000    -0.82500
H1132       H  0.41544657  0.39031449  0.55876368     0.13300
C1133       C  0.45184858  0.35398125  0.56679834     0.02600
N1134       N  0.52148507  0.38313887  0.54324820    -0.81000
H1135       H  0.52831235  0.43442123  0.51952116     0.18100
C1136       C  0.44340976  0.31792386  0.56146799    -0.25900
C1137       C  0.42853474  0.28809275  0.57419512     0.36100
C1138       C  0.42049992  0.29424999  0.59245382    -0.19900
C1139       C  0.42984886  0.33051681  0.59783446    -0.25200
C1140       C  0.44595349  0.36048088  0.58531679     0.27500
H1141       H  0.44768005  0.31291897  0.54721002     0.13300
N1142       N  0.41966761  0.25133216  0.56832324    -0.82400
H1143       H  0.42412475  0.33541483  0.61186322     0.18100
N1144       N  0.45561302  0.39745463  0.59120247    -0.81000
H1145       H  0.42509468  0.25123564  0.55420954     0.33800
H1146       H  0.43799392  0.24473144  0.57515425     0.38300
H1147       H  0.44919506  0.39751108  0.60518025     0.33700
H1148       H  0.48465558  0.41432478  0.58998256     0.30400
H1149       H  0.54764555  0.40587964  0.54664934     0.33700
H1150       H  0.51439162  0.36447839  0.55423484     0.30400
H1151       H  0.39932800  0.42530272  0.53340536     0.38300
H1152       H  0.42633960  0.45667978  0.54966834     0.33800
C1153       C  0.99721030  0.16296795  0.97238337    -0.20000
C1154       C  0.02809593  0.19887257  0.96863598     0.36200
C1155       C  0.02314451  0.23022666  0.96903357    -0.26000
C1156       C  0.98804483  0.22644962  0.97280092     0.02700
C1157       C  0.95677916  0.19068441  0.97525458     0.27500
C1158       C  0.96158090  0.15933801  0.97487345    -0.25100
N1159       N  0.06452141  0.20364160  0.96499008    -0.82500
H1160       H  0.04699703  0.25793378  0.96701214     0.13300
C1161       C  0.98521634  0.26026993  0.97627424     0.02600
N1162       N  0.92056957  0.18651233  0.97889730    -0.81000
H1163       H  0.93756230  0.13214280  0.97762978     0.18100
C1164       C  0.96889314  0.27260979  0.96305094    -0.25900
C1165       C  0.96650445  0.30503463  0.96611516     0.36100
C1166       C  0.98046177  0.32509697  0.98279534    -0.19900
C1167       C  0.99542258  0.31171813  0.99625572    -0.25200
C1168       C  0.99814256  0.27965166  0.99311298     0.27500
H1169       H  0.95846020  0.25715700  0.95026539     0.13300
N1170       N  0.95013670  0.31773153  0.95238712    -0.82400
H1171       H  0.00648446  0.32722273  0.00898394     0.18100
N1172       N  0.01457850  0.26694630  0.00681377    -0.81000
H1173       H  0.94134604  0.29992730  0.94093331     0.33800
H1174       H  0.92608082  0.31604260  0.95816129     0.38300
H1175       H  0.02322839  0.28459809  0.01832330     0.33700
H1176       H  0.99369199  0.24076161  0.01143373     0.30400
H1177       H  0.90038849  0.15830024  0.98033463     0.33700
H1178       H  0.92201673  0.19913255  0.99162926     0.30400
H1179       H  0.06278289  0.18997441  0.95255659     0.38300
H1180       H  0.08416333  0.23183458  0.96290484     0.33800
C1181       C  0.02213671  0.67477373  0.01466801    -0.20000
C1182       C  0.04133660  0.70428444  0.00194992     0.36200
C1183       C  0.03887875  0.73686807  0.00353358    -0.26000
C1184       C  0.01749502  0.74058779  0.01758334     0.02700
C1185       C  0.99982965  0.71204503  0.03085473     0.27500
C1186       C  0.00245222  0.67954438  0.02931871    -0.25100
N1187       N  0.06301339  0.70120230  0.98729927    -0.82500
H1188       H  0.05273084  0.75887680  0.99336503     0.13300
C1189       C  0.01200287  0.77345951  0.01758716     0.02600
N1190       N  0.97861331  0.71589310  0.04559553    -0.81000
H1191       H  0.98756049  0.65714833  0.03917907     0.18100
C1192       C  0.97579386  0.76793331  0.01525777    -0.25900
C1193       C  0.96939209  0.79827609  0.01398603     0.36100
C1194       C  0.00018083  0.83526592  0.01494056    -0.19900
C1195       C  0.03628416  0.84042339  0.01793883    -0.25200
C1196       C  0.04248335  0.80999310  0.01923181     0.27500
H1197       H  0.95245883  0.73968749  0.01398902     0.13300
N1198       N  0.93195154  0.79141597  0.01103936    -0.82400
H1199       H  0.06006988  0.86841239  0.01882612     0.18100
N1200       N  0.07966901  0.81600343  0.02194946    -0.81000
H1201       H  0.91311747  0.76283072  0.00957502     0.33800
H1202       H  0.92392174  0.79981423  0.02299193     0.38300
H1203       H  0.09911167  0.84455354  0.02272642     0.33700
H1204       H  0.08016206  0.80451743  0.03476275     0.30400
H1205       H  0.96699480  0.69225389  0.05409504     0.33700
H1206       H  0.99727219  0.73836003  0.05380352     0.30400
H1207       H  0.05228986  0.70429589  0.97472718     0.38300
H1208       H  0.09053239  0.72327245  0.98855313     0.33800
C1209       C  0.13356677  0.78959767  0.86487590    -0.20000
C1210       C  0.13604280  0.75772799  0.86020471     0.36200
C1211       C  0.12182894  0.72709711  0.87245967    -0.26000
C1212       C  0.10537256  0.72771091  0.88936162     0.02700
C1213       C  0.10516500  0.76073158  0.89445298     0.27500
C1214       C  0.11840882  0.79082405  0.88203821    -0.25100
N1215       N  0.15313263  0.75668641  0.84306212    -0.82500
H1216       H  0.12310842  0.70237187  0.86871244     0.13300
C1217       C  0.08993394  0.69417877  0.90167178     0.02600
N1218       N  0.09306694  0.76510497  0.91237217    -0.81000
H1219       H  0.11648400  0.81519967  0.88575213     0.18100
C1220       C  0.11407829  0.68247501  0.90885655    -0.25900
C1221       C  0.10096865  0.65190016  0.92111959     0.36100
C1222       C  0.06278861  0.63250940  0.92633737    -0.19900
C1223       C  0.03836920  0.64326850  0.91850237    -0.25200
C1224       C  0.05143222  0.67325174  0.90594150     0.27500
H1225       H  0.14352120  0.69793773  0.90525704     0.13300
N1226       N  0.12662048  0.64148388  0.92885279    -0.82400
H1227       H  0.00895713  0.62836479  0.92220040     0.18100
N1228       N  0.02538231  0.68187626  0.89726608    -0.81000
H1229       H  0.15351288  0.65820289  0.92344165     0.33800
H1230       H  0.12853655  0.64694984  0.94303719     0.38300
H1231       H  0.00609031  0.65832295  0.88987075     0.33700
H1232       H  0.01065666  0.68673221  0.90763179     0.30400
H1233       H  0.06489420  0.74529619  0.91412316     0.33700
H1234       H  0.10869582  0.76045610  0.92234301     0.30400
H1235       H  0.13622325  0.75666431  0.83228399     0.38300
H1236       H  0.15370273  0.73175473  0.84192874     0.33800
C1237       C  0.09970184  0.47098846  0.92886586    -0.20000
C1238       C  0.09922252  0.47750819  0.90972472     0.36200
C1239       C  0.11179868  0.46009824  0.89713943    -0.26000
C1240       C  0.12451306  0.43611195  0.90329000     0.02700
C1241       C  0.12721727  0.43144491  0.92245151     0.27500
C1242       C  0.11440573  0.44861076  0.93502780    -0.25100
N1243       N  0.08416427  0.50013091  0.90307674    -0.82500
H1244       H  0.11015849  0.46391620  0.88241140     0.13300
C1245       C  0.13299537  0.41467568  0.88944594     0.02600
N1246       N  0.14290180  0.40931935  0.92904019    -0.81000
H1247       H  0.11491438  0.44369406  0.94972151     0.18100
C1248       C  0.16580410  0.43353898  0.87888859    -0.25900
C1249       C  0.17451803  0.41493836  0.86513398     0.36100
C1250       C  0.15053368  0.37620230  0.86226040    -0.19900
C1251       C  0.11749923  0.35748191  0.87271837    -0.25200
C1252       C  0.10815796  0.37616124  0.88605676     0.27500
H1253       H  0.18440314  0.46311912  0.88120822     0.13300
N1254       N  0.20722418  0.43542957  0.85383141    -0.82400
H1255       H  0.09855478  0.32795740  0.87040976     0.18100
N1256       N  0.07275120  0.35531449  0.89537103    -0.81000
H1257       H  0.22197553  0.46352332  0.85773997     0.33800
H1258       H  0.19821421  0.43465082  0.84023797     0.38300
H1259       H  0.07376407  0.33472956  0.90335015     0.33700
H1260       H  0.06759800  0.37191751  0.90439615     0.30400
H1261       H  0.14391646  0.40963779  0.94349386     0.33700
H1262       H  0.12490982  0.38162025  0.92519809     0.30400
H1263       H  0.05560950  0.48630765  0.90627607     0.38300
H1264       H  0.08606668  0.50233105  0.88866777     0.33800
C1265       C  0.15619765  0.17283375  0.01612044    -0.20000
C1266       C  0.15261449  0.20496024  0.01336172     0.36200
C1267       C  0.18441398  0.24075235  0.01481545    -0.26000
C1268       C  0.21956081  0.24539137  0.01929530     0.02700
C1269       C  0.22281956  0.21370930  0.02326734     0.27500
C1270       C  0.19111862  0.17781869  0.02175663    -0.25100
N1271       N  0.11696942  0.20130087  0.00873363    -0.82500
H1272       H  0.18201658  0.26525862  0.01203655     0.13300
C1273       C  0.25327064  0.28325155  0.01829115     0.02600
N1274       N  0.25864752  0.21807278  0.02811105    -0.81000
H1275       H  0.19426265  0.15362306  0.02408530     0.18100
C1276       C  0.27396941  0.30016337  0.03432086    -0.25900
C1277       C  0.30791633  0.33443672  0.03348518     0.36100
C1278       C  0.32192690  0.35178771  0.01611357    -0.19900
C1279       C  0.29975626  0.33568234  0.00025938    -0.25200
C1280       C  0.26579193  0.30162101  0.00115820     0.27500
H1281       H  0.26382328  0.28621357  0.04749760     0.13300
N1282       N  0.32833184  0.35124613  0.05018273    -0.82400
H1283       H  0.30979977  0.34864635  0.98687802     0.18100
N1284       N  0.24461029  0.28487768  0.98461361    -0.81000
H1285       H  0.31444001  0.33470351  0.06166304     0.33800
H1286       H  0.32867804  0.37652754  0.05196034     0.38300
H1287       H  0.25748413  0.30196295  0.97314779     0.33700
H1288       H  0.24488269  0.26002996  0.98231869     0.30400
H1289       H  0.25632700  0.19208806  0.03067995     0.33700
H1290       H  0.27625510  0.22936056  0.01665301     0.30400
H1291       H  0.09925754  0.18918605  0.02008869     0.38300
H1292       H  0.11941416  0.22750951  0.00677506     0.33800
C1293       C  0.68510320  0.64151775  0.98025219    -0.20000
C1294       C  0.69861551  0.65602985  0.96234283     0.36200
C1295       C  0.73145392  0.69097504  0.96046386    -0.26000
C1296       C  0.75114645  0.71161479  0.97600314     0.02700
C1297       C  0.73906607  0.69647268  0.99379896     0.27500
C1298       C  0.70644594  0.66145171  0.99573776    -0.25100
N1299       N  0.67845040  0.63589417  0.94613409    -0.82500
H1300       H  0.74110663  0.70279777  0.94683395     0.13300
C1301       C  0.78235400  0.75044605  0.97362000     0.02600
N1302       N  0.75877353  0.71771607  0.00986393    -0.81000
H1303       H  0.69649225  0.65083655  0.00951359     0.18100
C1304       C  0.77418998  0.77955006  0.97307131    -0.25900
C1305       C  0.80292787  0.81718226  0.97253769     0.36100
C1306       C  0.84079374  0.82583886  0.97305513    -0.19900
C1307       C  0.84866548  0.79632161  0.97246890    -0.25200
C1308       C  0.81982797  0.75874478  0.97262777     0.27500
H1309       H  0.74517855  0.77280264  0.97349359     0.13300
N1310       N  0.79362735  0.84640460  0.97241428    -0.82400
H1311       H  0.87753031  0.80257917  0.97247389     0.18100
N1312       N  0.82842826  0.72904810  0.97189309    -0.81000
H1313       H  0.76460897  0.83519637  0.97306601     0.33800
H1314       H  0.80204050  0.85995047  0.95963750     0.38300
H1315       H  0.85735239  0.73989970  0.97087241     0.33700
H1316       H  0.82012033  0.71446683  0.98439574     0.30400
H1317       H  0.74565523  0.70315436  0.02194891     0.33700
H1318       H  0.78545662  0.72061332  0.00979357     0.30400
H1319       H  0.67940392  0.61109023  0.94568239     0.38300
H1320       H  0.69168431  0.65078848  0.93413977     0.33800
C1321       C  0.53771341  0.63046384  0.93045697    -0.20000
C1322       C  0.51331287  0.64245599  0.92341303     0.36200
C1323       C  0.52691059  0.67175828  0.91034696    -0.26000
C1324       C  0.56385863  0.68849225  0.90381762     0.02700
C1325       C  0.58804862  0.67648394  0.91064402     0.27500
C1326       C  0.57495096  0.64806497  0.92397671    -0.25100
N1327       N  0.47512421  0.62537095  0.92958678    -0.82500
H1328       H  0.50848996  0.68118623  0.90494785     0.13300
C1329       C  0.57722102  0.71819875  0.88953305     0.02600
N1330       N  0.62582539  0.69306036  0.90385100    -0.81000
H1331       H  0.59395362  0.63904481  0.92899016     0.18100
C1332       C  0.60259072  0.75504771  0.89483968    -0.25900
C1333       C  0.61981583  0.78372804  0.88164153     0.36100
C1334       C  0.61069925  0.77551971  0.86275159    -0.19900
C1335       C  0.58475990  0.73880227  0.85751638    -0.25200
C1336       C  0.56819722  0.70996395  0.87057904     0.27500
H1337       H  0.60990227  0.76113649  0.90931781     0.13300
N1338       N  0.64720381  0.82084608  0.88729360    -0.82400
H1339       H  0.57779814  0.73233714  0.84302897     0.18100
N1340       N  0.54321720  0.67277754  0.86397809    -0.81000
H1341       H  0.65052208  0.82226187  0.90165692     0.33800
H1342       H  0.67293640  0.82684996  0.88160938     0.38300
H1343       H  0.55875045  0.66497920  0.85553743     0.33700
H1344       H  0.53263694  0.65333212  0.87470500     0.30400
H1345       H  0.64018962  0.68132784  0.91036844     0.33700
H1346       H  0.62443716  0.68642573  0.88981069     0.30400
H1347       H  0.46204318  0.63936219  0.92407725     0.38300
H1348       H  0.46087919  0.59840137  0.92407325     0.33800
C1349       C  0.22243143  0.37309155  0.86254421    -0.20000
C1350       C  0.25996574  0.39837657  0.85754532     0.36200
C1351       C  0.28756292  0.41378600  0.87134123    -0.26000
C1352       C  0.27845527  0.40472053  0.88998500     0.02700
C1353       C  0.24067356  0.38056270  0.89510308     0.27500
C1354       C  0.21323385  0.36480364  0.88129391    -0.25100
N1355       N  0.26994875  0.40797366  0.83845894    -0.82500
H1356       H  0.31651988  0.43238090  0.86752972     0.13300
C1357       C  0.30938071  0.41855098  0.90355003     0.02600
N1358       N  0.22913580  0.37143744  0.91405995    -0.81000
H1359       H  0.18455195  0.34543295  0.88523202     0.18100
C1360       C  0.32543751  0.45520999  0.91018161    -0.25900
C1361       C  0.35448424  0.46883490  0.92321139     0.36100
C1362       C  0.36779505  0.44522334  0.92981272    -0.19900
C1363       C  0.35207804  0.40879876  0.92276512    -0.25200
C1364       C  0.32320164  0.39531215  0.90960828     0.27500
H1365       H  0.31495196  0.47314422  0.90537588     0.13300
N1366       N  0.36875337  0.50610874  0.92995700    -0.82400
H1367       H  0.36223696  0.39065432  0.92765629     0.18100
N1368       N  0.30817873  0.35829629  0.90217051    -0.81000
H1369       H  0.39715693  0.52184676  0.92664028     0.33800
H1370       H  0.36572077  0.50512325  0.94433814     0.38300
H1371       H  0.32223525  0.34526573  0.90763908     0.33700
H1372       H  0.28035129  0.34252765  0.90652572     0.30400
H1373       H  0.21918279  0.34288081  0.91584339     0.33700
H1374       H  0.25145469  0.38555635  0.92321057     0.30400
H1375       H  0.25621179  0.42188615  0.83371010     0.38300
H1376       H  0.29864666  0.42669023  0.83714316     0.33800
C1377       C  0.66957246  0.01767621  0.98082324    -0.20000
C1378       C  0.66977223  0.98734579  0.97193218     0.36200
C1379       C  0.70200833  0.98419277  0.97250508    -0.26000
C1380       C  0.73391323  0.01032793  0.98211150     0.02700
C1381       C  0.73400899  0.04092717  0.99088166     0.27500
C1382       C  0.70183964  0.04435768  0.99005867    -0.25100
N1383       N  0.63676555  0.95865606  0.96308237    -0.82500
H1384       H  0.70195358  0.96091155  0.96558170     0.13300
C1385       C  0.76740883  0.00594450  0.98243882     0.02600
N1386       N  0.76647277  0.06791164  0.00090124    -0.81000
H1387       H  0.70159738  0.06740447  0.99707064     0.18100
C1388       C  0.80130290  0.03552606  0.97605535    -0.25900
C1389       C  0.83414339  0.03351402  0.97652640     0.36100
C1390       C  0.83299759  0.00086201  0.98340781    -0.19900
C1391       C  0.79875445  0.97048885  0.98904509    -0.25200
C1392       C  0.76588380  0.97289180  0.98887640     0.27500
H1393       H  0.80209607  0.06040123  0.97066307     0.13300
N1394       N  0.86864588  0.06449133  0.96991890    -0.82400
H1395       H  0.79794372  0.94548086  0.99423668     0.18100
N1396       N  0.73124951  0.94236472  0.99559190    -0.81000
H1397       H  0.86471807  0.08650133  0.96566687     0.33800
H1398       H  0.87676606  0.05552023  0.95820002     0.38300
H1399       H  0.73493353  0.92016869  0.99977097     0.33700
H1400       H  0.72365266  0.95162610  0.00738769     0.30400
H1401       H  0.76201360  0.08875025  0.00642513     0.33700
H1402       H  0.77029481  0.05414650  0.01210615     0.30400
H1403       H  0.62940023  0.93321041  0.96950191     0.38300
H1404       H  0.64328735  0.95690903  0.94928563     0.33800
C1405       C  0.32803777  0.98547176  0.01640950    -0.20000
C1406       C  0.30102814  0.96790558  0.00225084     0.36200
C1407       C  0.27012122  0.97325881  0.00155797    -0.26000
C1408       C  0.26498505  0.99450190  0.01500674     0.02700
C1409       C  0.28952887  0.00879663  0.03016315     0.27500
C1410       C  0.32110173  0.00428262  0.03070475    -0.25100
N1411       N  0.30549572  0.94545588  0.98840272    -0.82500
H1412       H  0.24998566  0.96105427  0.99040047     0.13300
C1413       C  0.23223522  0.99937997  0.01330823     0.02600
N1414       N  0.28242668  0.02800979  0.04477084    -0.81000
H1415       H  0.34130274  0.01727462  0.04176033     0.18100
C1416       C  0.19839998  0.97164418  0.02063528    -0.25900
C1417       C  0.16533471  0.97219012  0.01736816     0.36100
C1418       C  0.16608214  0.00101986  0.00658500    -0.19900
C1419       C  0.20028926  0.02970743  0.99977308    -0.25200
C1420       C  0.23359714  0.02893034  0.00290288     0.27500
H1421       H  0.19754385  0.94896240  0.02858462     0.13300
N1422       N  0.13100406  0.94358420  0.02523176    -0.82400
H1423       H  0.20080390  0.05200763  0.99164260     0.18100
N1424       N  0.26845357  0.05715896  0.99513882    -0.81000
H1425       H  0.13427921  0.94421271  0.03958768     0.33800
H1426       H  0.12655717  0.91780435  0.02046869     0.38300
H1427       H  0.26447099  0.07652453  0.98761189     0.33700
H1428       H  0.28634165  0.07181959  0.00609887     0.30400
H1429       H  0.30291948  0.03630629  0.05504762     0.33700
H1430       H  0.28472002  0.05243598  0.03922122     0.30400
H1431       H  0.28338848  0.93505328  0.97891240     0.38300
H1432       H  0.30405057  0.92232890  0.99509341     0.33800
C1433       C  0.20764645  0.86239917  0.86522566    -0.20000
C1434       C  0.24177617  0.86408301  0.86090149     0.36200
C1435       C  0.27077202  0.87720962  0.87410650    -0.26000
C1436       C  0.26635236  0.88845015  0.89184809     0.02700
C1437       C  0.23114125  0.88484709  0.89650223     0.27500
C1438       C  0.20278375  0.87277934  0.88301133    -0.25100
N1439       N  0.24719681  0.85284113  0.84298575    -0.82500
H1440       H  0.29727230  0.87949976  0.87029780     0.13300
C1441       C  0.29933159  0.90558704  0.90473780     0.02600
N1442       N  0.22294071  0.89297027  0.91468473    -0.81000
H1443       H  0.17680596  0.87197142  0.88642508     0.18100
C1444       C  0.31249355  0.94200431  0.91140941    -0.25900
C1445       C  0.34264827  0.95883838  0.92399062     0.36100
C1446       C  0.36091852  0.93924017  0.92978255    -0.19900
C1447       C  0.34873485  0.90341655  0.92245591    -0.25200
C1448       C  0.31794768  0.88624809  0.91024431     0.27500
H1449       H  0.29871981  0.95718454  0.90694038     0.13300
N1450       N  0.35463725  0.99571982  0.93091447    -0.82400
H1451       H  0.36224893  0.88798255  0.92690729     0.18100
N1452       N  0.30493483  0.84885420  0.90379367    -0.81000
H1453       H  0.33799405  0.00602568  0.92552168     0.33800
H1454       H  0.38183511  0.01328986  0.92609555     0.38300
H1455       H  0.32154104  0.83847690  0.90909559     0.33700
H1456       H  0.27795405  0.83190875  0.90908577     0.30400
H1457       H  0.19965073  0.86870603  0.91963850     0.33700
H1458       H  0.24442516  0.89855573  0.92400457     0.30400
H1459       H  0.27049675  0.87550373  0.83692568     0.38300
H1460       H  0.25329814  0.83131468  0.84474693     0.33800
C1461       C  0.60526719  0.84572904  0.86142669    -0.20000
C1462       C  0.62215291  0.87976896  0.87133250     0.36200
C1463       C  0.60090165  0.88671520  0.88419396    -0.26000
C1464       C  0.56330591  0.86037495  0.88757136     0.02700
C1465       C  0.54619938  0.82629223  0.87769670     0.27500
C1466       C  0.56732276  0.81958528  0.86461975    -0.25100
N1467       N  0.66094137  0.90700799  0.86844498    -0.82500
H1468       H  0.61380719  0.91279246  0.89180423     0.13300
C1469       C  0.54327812  0.86991097  0.90155868     0.02600
N1470       N  0.50771363  0.79809081  0.88046215    -0.81000
H1471       H  0.55394425  0.79371091  0.85686440     0.18100
C1472       C  0.52436348  0.88849985  0.89593200    -0.25900
C1473       C  0.51087158  0.90416284  0.90888044     0.36100
C1474       C  0.51591732  0.90038230  0.92804241    -0.19900
C1475       C  0.53351031  0.88032269  0.93359636    -0.25200
C1476       C  0.54713005  0.86490579  0.92051392     0.27500
H1477       H  0.52183041  0.89260158  0.88130756     0.13300
N1478       N  0.49432390  0.92530030  0.90192224    -0.82400
H1479       H  0.53776229  0.87781435  0.94820448     0.18100
N1480       N  0.56628280  0.84556439  0.92632416    -0.81000
H1481       H  0.51490232  0.94786795  0.89441459     0.33800
H1482       H  0.48601074  0.93676211  0.91244013     0.38300
H1483       H  0.56719039  0.84465192  0.94075633     0.33700
H1484       H  0.55048419  0.81791354  0.92181909     0.30400
H1485       H  0.50746443  0.77434447  0.88566240     0.33700
H1486       H  0.49474634  0.80613230  0.89038240     0.30400
H1487       H  0.66888047  0.93058503  0.87667691     0.38300
H1488       H  0.67696131  0.89520687  0.87278532     0.33800
C1489       C  0.85388837  0.61980125  0.13860555    -0.20000
C1490       C  0.83114345  0.58079996  0.13628443     0.36200
C1491       C  0.83966860  0.56263930  0.12225490    -0.26000
C1492       C  0.87138156  0.58225099  0.11098052     0.02700
C1493       C  0.89520847  0.62117584  0.11393636     0.27500
C1494       C  0.88565585  0.63938695  0.12741574    -0.25100
N1495       N  0.79967237  0.55975945  0.14827636    -0.82500
H1496       H  0.82164702  0.53288268  0.12018346     0.13300
C1497       C  0.87916149  0.56140983  0.09646310     0.02600
N1498       N  0.92955294  0.64311082  0.10387989    -0.81000
H1499       H  0.90347676  0.66924629  0.12926776     0.18100
C1500       C  0.88059675  0.57163366  0.07784475    -0.25900
C1501       C  0.89234854  0.55582957  0.06401895     0.36100
C1502       C  0.90186258  0.52839073  0.06883079    -0.19900
C1503       C  0.89725824  0.51585485  0.08720181    -0.25200
C1504       C  0.88648564  0.53244711  0.10112457     0.27500
H1505       H  0.87408147  0.59323468  0.07424226     0.13300
N1506       N  0.89566944  0.56825745  0.04517541    -0.82400
H1507       H  0.90462695  0.49492594  0.09093567     0.18100
N1508       N  0.88446564  0.52109293  0.12008079    -0.81000
H1509       H  0.88808807  0.58884565  0.04398328     0.33800
H1510       H  0.87646709  0.54550642  0.03728551     0.38300
H1511       H  0.89064404  0.49950534  0.12119676     0.33700
H1512       H  0.90527617  0.54377979  0.12741699     0.30400
H1513       H  0.95137003  0.65456569  0.11352660     0.33700
H1514       H  0.93565911  0.62674708  0.09520410     0.30400
H1515       H  0.81002498  0.56166098  0.16167399     0.38300
H1516       H  0.78573061  0.53146453  0.14471528     0.33800
C1517       C  0.63724722  0.55219354  0.06953826    -0.20000
C1518       C  0.65944961  0.59045919  0.07422104     0.36200
C1519       C  0.68737430  0.60133846  0.08779476    -0.26000
C1520       C  0.69348130  0.57498928  0.09698741     0.02700
C1521       C  0.67006631  0.53668371  0.09317489     0.27500
C1522       C  0.64211808  0.52563746  0.07950104    -0.25100
N1523       N  0.65362239  0.61820654  0.06521471    -0.82500
H1524       H  0.70477974  0.63065709  0.09118170     0.13300
C1525       C  0.72436807  0.58838461  0.11072987     0.02600
N1526       N  0.67526241  0.50928755  0.10294498    -0.81000
H1527       H  0.62503711  0.49627577  0.07615358     0.18100
C1528       C  0.71521557  0.57985843  0.12944141    -0.25900
C1529       C  0.74287053  0.59507569  0.14327111     0.36100
C1530       C  0.78056120  0.61999707  0.13831725    -0.19900
C1531       C  0.78974293  0.62786141  0.11954014    -0.25200
C1532       C  0.76240238  0.61180634  0.10567648     0.27500
H1533       H  0.68616592  0.56188674  0.13329452     0.13300
N1534       N  0.73273958  0.58577113  0.16236146    -0.82400
H1535       H  0.81843106  0.64709890  0.11557190     0.18100
N1536       N  0.77436317  0.62012809  0.08672329    -0.81000
H1537       H  0.70394380  0.56744253  0.16366612     0.33800
H1538       H  0.74606278  0.57149045  0.16715982     0.38300
H1539       H  0.79330564  0.61070953  0.08433998     0.33700
H1540       H  0.75227544  0.60527295  0.07754504     0.30400
H1541       H  0.65566677  0.48234850  0.09859110     0.33700
H1542       H  0.70166838  0.51341010  0.09941580     0.30400
H1543       H  0.62688515  0.61302109  0.06885037     0.38300
H1544       H  0.67254958  0.64493452  0.07010444     0.33800
C1545       C  0.66169788  0.15945698  0.31490825    -0.20000
C1546       C  0.69298898  0.15433960  0.31244461     0.36200
C1547       C  0.68723592  0.11804286  0.31026224    -0.26000
C1548       C  0.65115895  0.08670542  0.31078321     0.02700
C1549       C  0.61992932  0.09173802  0.31261716     0.27500
C1550       C  0.62549346  0.12798966  0.31465832    -0.25100
N1551       N  0.73054439  0.18562376  0.31296416    -0.82500
H1552       H  0.71119079  0.11399201  0.30905794     0.13300
C1553       C  0.64706982  0.04889394  0.31114455     0.02600
N1554       N  0.58273148  0.05991850  0.31266322    -0.81000
H1555       H  0.60136223  0.13159818  0.31634748     0.18100
C1556       C  0.63076297  0.02608922  0.32666637    -0.25900
C1557       C  0.63074392  0.99225833  0.32885535     0.36100
C1558       C  0.64812934  0.98125505  0.31531298    -0.19900
C1559       C  0.66239285  0.00320043  0.29921694    -0.25200
C1560       C  0.66198464  0.03680337  0.29700392     0.27500
H1561       H  0.61916403  0.03543507  0.33747531     0.13300
N1562       N  0.61401501  0.96971788  0.34501642    -0.82400
H1563       H  0.67538675  0.99501944  0.28859391     0.18100
N1564       N  0.67748172  0.05920802  0.28067849    -0.81000
H1565       H  0.60330822  0.98227501  0.35375953     0.33800
H1566       H  0.59113302  0.94454705  0.34061353     0.38300
H1567       H  0.68761591  0.04657524  0.27163461     0.33700
H1568       H  0.65567167  0.06019935  0.27378768     0.30400
H1569       H  0.56279690  0.06831869  0.31427235     0.33700
H1570       H  0.57804674  0.04727947  0.29967087     0.30400
H1571       H  0.73563120  0.19623903  0.32642982     0.38300
H1572       H  0.75007944  0.17702913  0.31041363     0.33800
C1573       C  0.68235343  0.50276156  0.35012231    -0.20000
C1574       C  0.65305955  0.51108385  0.35198932     0.36200
C1575       C  0.66190424  0.54861711  0.35317149    -0.26000
C1576       C  0.69917216  0.57778409  0.35286500     0.02700
C1577       C  0.72841783  0.56963808  0.35204094     0.27500
C1578       C  0.71975117  0.53225206  0.35070292    -0.25100
N1579       N  0.61452029  0.48180674  0.35175591    -0.82500
H1580       H  0.63962255  0.55530707  0.35383727     0.13300
C1581       C  0.70687859  0.61670440  0.35166782     0.02600
N1582       N  0.76674359  0.59941023  0.35220817    -0.81000
H1583       H  0.74242243  0.52621785  0.34955825     0.18100
C1584       C  0.71326771  0.63784624  0.36777968    -0.25900
C1585       C  0.71715698  0.67363203  0.36700620     0.36100
C1586       C  0.71473284  0.68856773  0.34981826    -0.19900
C1587       C  0.71065359  0.66799671  0.33361548    -0.25200
C1588       C  0.70638864  0.63214177  0.33439152     0.27500
H1589       H  0.71420581  0.62611335  0.38104460     0.13300
N1590       N  0.72326206  0.69448076  0.38370239    -0.82400
H1591       H  0.70864174  0.67895688  0.32031297     0.18100
N1592       N  0.69994845  0.61062707  0.31778582    -0.81000
H1593       H  0.74796413  0.69826009  0.38976531     0.33800
H1594       H  0.70123794  0.67835156  0.39274268     0.38300
H1595       H  0.69954028  0.62566330  0.30623494     0.33700
H1596       H  0.72266859  0.60629225  0.31600918     0.30400
H1597       H  0.78495097  0.58867108  0.35170294     0.33700
H1598       H  0.77140094  0.61508362  0.34014295     0.30400
H1599       H  0.60953481  0.46663196  0.36402362     0.38300
H1600       H  0.59666733  0.49297833  0.35202495     0.33800
C1601       C  0.52421482  0.96302189  0.47039572    -0.20000
C1602       C  0.52902821  0.97431061  0.45156923     0.36200
C1603       C  0.54248836  0.95801357  0.43887904    -0.26000
C1604       C  0.55380052  0.93260211  0.44452493     0.02700
C1605       C  0.55126064  0.92315808  0.46353840     0.27500
C1606       C  0.53574899  0.93774382  0.47602930    -0.25100
N1607       N  0.52199914  0.00306858  0.44491987    -0.82500
H1608       H  0.54547363  0.96638577  0.42448617     0.13300
C1609       C  0.57064691  0.91885291  0.43047774     0.02600
N1610       N  0.56572317  0.90051138  0.47090471    -0.81000
H1611       H  0.53337391  0.92978600  0.49046535     0.18100
C1612       C  0.60477924  0.94451662  0.42225682    -0.25900
C1613       C  0.62170893  0.93327534  0.40879781     0.36100
C1614       C  0.60483302  0.89528745  0.40358532    -0.19900
C1615       C  0.57038928  0.86961749  0.41170833    -0.25200
C1616       C  0.55273567  0.88111112  0.42478010     0.27500
H1617       H  0.61834816  0.97366153  0.42626245     0.13300
N1618       N  0.65616480  0.96068091  0.40051390    -0.82400
H1619       H  0.55647240  0.84068697  0.40733836     0.18100
N1620       N  0.51590939  0.85505710  0.43151011    -0.81000
H1621       H  0.67591967  0.97374778  0.41102740     0.33800
H1622       H  0.65158677  0.98082205  0.39417744     0.38300
H1623       H  0.50581100  0.82905200  0.42515967     0.33700
H1624       H  0.51796807  0.85077187  0.44557957     0.30400
H1625       H  0.54317640  0.87603670  0.47617370     0.33700
H1626       H  0.57852282  0.89273901  0.46078189     0.30400
H1627       H  0.51662392  0.01616165  0.45582500     0.38300
H1628       H  0.54681836  0.02394624  0.43898903     0.33800
C1629       C  0.58630877  0.70267731  0.40345369    -0.20000
C1630       C  0.60198271  0.67952877  0.40729852     0.36200
C1631       C  0.58511000  0.65052164  0.42021831    -0.26000
C1632       C  0.55258476  0.64326726  0.42964543     0.02700
C1633       C  0.53612442  0.66544502  0.42578732     0.27500
C1634       C  0.55322314  0.69504034  0.41281734    -0.25100
N1635       N  0.63575791  0.68568103  0.39852149    -0.82500
H1636       H  0.59813470  0.63386292  0.42319360     0.13300
C1637       C  0.53752577  0.61309252  0.44391120     0.02600
N1638       N  0.50210984  0.65772281  0.43499325    -0.81000
H1639       H  0.54067858  0.71217652  0.41005899     0.18100
C1640       C  0.53632934  0.62210646  0.46253250    -0.25900
C1641       C  0.52676279  0.59523378  0.47663837     0.36100
C1642       C  0.51859247  0.55873033  0.47204102    -0.19900
C1643       C  0.51932220  0.54963610  0.45340700    -0.25200
C1644       C  0.52824380  0.57623029  0.43930658     0.27500
H1645       H  0.54377199  0.65044584  0.46610118     0.13300
N1646       N  0.52541878  0.60484441  0.49560375    -0.82400
H1647       H  0.51291052  0.52158201  0.44986557     0.18100
N1648       N  0.52820338  0.56607705  0.42029844    -0.81000
H1649       H  0.53231423  0.63279346  0.49667862     0.33800
H1650       H  0.49771054  0.58879241  0.50009986     0.38300
H1651       H  0.52093089  0.53801098  0.41924702     0.33700
H1652       H  0.50722069  0.56867794  0.41348586     0.30400
H1653       H  0.49347312  0.67637121  0.43061543     0.33700
H1654       H  0.48122073  0.63108520  0.43092035     0.30400
H1655       H  0.63012173  0.66121453  0.39158949     0.38300
H1656       H  0.65559950  0.69084645  0.40881957     0.33800
C1657       C  0.81832978  0.69809911  0.19443104    -0.20000
C1658       C  0.81690880  0.68924758  0.21336293     0.36200
C1659       C  0.80360819  0.70551838  0.22607997    -0.26000
C1660       C  0.78995313  0.72884990  0.22016283     0.02700
C1661       C  0.78996789  0.73654689  0.20110196     0.27500
C1662       C  0.80506455  0.72185104  0.18858302    -0.25100
N1663       N  0.82809960  0.66318386  0.21953929    -0.82500
H1664       H  0.80313258  0.69940819  0.24068854     0.13300
C1665       C  0.77581909  0.74450176  0.23427674     0.02600
N1666       N  0.77417469  0.75816857  0.19387923    -0.81000
H1667       H  0.80535772  0.72809146  0.17399935     0.18100
C1668       C  0.79572400  0.78294740  0.23783623    -0.25900
C1669       C  0.78424394  0.79864584  0.25180937     0.36100
C1670       C  0.75234031  0.77503417  0.26257080    -0.19900
C1671       C  0.73227111  0.73654056  0.25869334    -0.25200
C1672       C  0.74361558  0.72107764  0.24463092     0.27500
H1673       H  0.82058961  0.80063095  0.22979449     0.13300
N1674       N  0.80586347  0.83801608  0.25556577    -0.82400
H1675       H  0.70770372  0.71828385  0.26678522     0.18100
N1676       N  0.72290991  0.68162597  0.24095026    -0.81000
H1677       H  0.82996913  0.85056388  0.24736759     0.33800
H1678       H  0.78979196  0.84994289  0.25149362     0.38300
H1679       H  0.70015923  0.66820673  0.24996962     0.33700
H1680       H  0.71178200  0.67803340  0.22761916     0.30400
H1681       H  0.75216861  0.74080897  0.18506135     0.33700
H1682       H  0.76220534  0.76636063  0.20424006     0.30400
H1683       H  0.80956884  0.63717057  0.21378083     0.38300
H1684       H  0.82552669  0.65993255  0.23389556     0.33800
C1685       C  0.50355298  0.16718370  0.35558355    -0.20000
C1686       C  0.47267790  0.17174724  0.36047395     0.36200
C1687       C  0.43648143  0.14019285  0.36169246    -0.26000
C1688       C  0.43039824  0.10421447  0.35829770     0.02700
C1689       C  0.46120180  0.09933161  0.35440198     0.27500
C1690       C  0.49741990  0.13074068  0.35326094    -0.25100
N1691       N  0.47790454  0.20837614  0.36373726    -0.82500
H1692       H  0.41268122  0.14373659  0.36471214     0.13300
C1693       C  0.39147390  0.07228228  0.35677859     0.02600
N1694       N  0.45524172  0.06261543  0.35056167    -0.81000
H1695       H  0.52063693  0.12677099  0.34949352     0.18100
C1696       C  0.37354747  0.06475807  0.33956763    -0.25900
C1697       C  0.33865459  0.03248697  0.33667371     0.36100
C1698       C  0.32102032  0.00666650  0.35128276    -0.19900
C1699       C  0.33812829  0.01572678  0.36889160    -0.25200
C1700       C  0.37311714  0.04822763  0.37177206     0.27500
H1701       H  0.38735135  0.08355202  0.32808227     0.13300
N1702       N  0.32196657  0.02573727  0.31867760    -0.82400
H1703       H  0.32492647  0.99671365  0.38035305     0.18100
N1704       N  0.39012976  0.05673545  0.38979671    -0.81000
H1705       H  0.31826360  0.04826816  0.31522133     0.33800
H1706       H  0.34067283  0.02492131  0.30918764     0.38300
H1707       H  0.37278125  0.03652209  0.39938596     0.33700
H1708       H  0.41472919  0.05533951  0.38909694     0.30400
H1709       H  0.48057286  0.06383001  0.34736715     0.33700
H1710       H  0.44536588  0.04678263  0.36264752     0.30400
H1711       H  0.49482044  0.21918288  0.37546094     0.38300
H1712       H  0.45240557  0.20686719  0.36685511     0.33800
C1713       C  0.83599883  0.49313194  0.30900545    -0.20000
C1714       C  0.84252343  0.52979171  0.30575046     0.36200
C1715       C  0.87960611  0.55958886  0.30378108    -0.26000
C1716       C  0.91033161  0.55381286  0.30517137     0.02700
C1717       C  0.90390030  0.51722315  0.30716691     0.27500
C1718       C  0.86703615  0.48743127  0.30902847    -0.25100
N1719       N  0.81192112  0.53714204  0.30507025    -0.82500
H1720       H  0.88468523  0.58782674  0.30219211     0.13300
C1721       C  0.94895351  0.58646765  0.30654226     0.02600
N1722       N  0.93507026  0.51071781  0.30779686    -0.81000
H1723       H  0.86275615  0.45969616  0.31118195     0.18100
C1724       C  0.96980689  0.59094189  0.32264089    -0.25900
C1725       C  0.00518450  0.62271294  0.32540633     0.36100
C1726       C  0.01994208  0.65135536  0.31189922    -0.19900
C1727       C  0.99967790  0.64574092  0.29531731    -0.25200
C1728       C  0.96446953  0.61364311  0.29251315     0.27500
H1729       H  0.95791066  0.56983631  0.33336274     0.13300
N1730       N  0.02558327  0.62616652  0.34208980    -0.82400
H1731       H  0.01060103  0.66709251  0.28470198     0.18100
N1732       N  0.94412790  0.60880238  0.27561974    -0.81000
H1733       H  0.04992119  0.62581550  0.33837553     0.33800
H1734       H  0.01035872  0.60306075  0.35069337     0.38300
H1735       H  0.95924928  0.63141896  0.26672620     0.33700
H1736       H  0.94163603  0.58521977  0.26895582     0.30400
H1737       H  0.92587341  0.48238321  0.30972554     0.33700
H1738       H  0.94826461  0.51806295  0.29490318     0.30400
H1739       H  0.80153317  0.53435220  0.31851359     0.38300
H1740       H  0.82141544  0.56485165  0.30123274     0.33800
C1741       C  0.10703881  0.69102141  0.40184937    -0.20000
C1742       C  0.08429027  0.65229486  0.39830764     0.36200
C1743       C  0.07345845  0.62664044  0.41299251    -0.26000
C1744       C  0.08377521  0.63871150  0.43124255     0.02700
C1745       C  0.10663987  0.67718243  0.43487334     0.27500
C1746       C  0.11858334  0.70291825  0.42009891    -0.25100
N1747       N  0.07263603  0.63898485  0.37979617    -0.82500
H1748       H  0.05588639  0.59702920  0.41029755     0.13300
C1749       C  0.06838436  0.61072186  0.44643200     0.02600
N1750       N  0.11712078  0.68993944  0.45356477    -0.81000
H1751       H  0.13616069  0.73247393  0.42289118     0.18100
C1752       C  0.09238088  0.60171245  0.45615218    -0.25900
C1753       C  0.07899780  0.57503710  0.47045516     0.36100
C1754       C  0.04028109  0.55610645  0.47484979    -0.19900
C1755       C  0.01655561  0.56551673  0.46519483    -0.25200
C1756       C  0.02995436  0.59262296  0.45124277     0.27500
H1757       H  0.12192360  0.61588986  0.45272150     0.13300
N1758       N  0.10574607  0.56933533  0.48060570    -0.82400
H1759       H  0.98701591  0.55163383  0.46863724     0.18100
N1760       N  0.00368050  0.60113286  0.44250460    -0.81000
H1761       H  0.11624680  0.55689638  0.47166116     0.33800
H1762       H  0.09344897  0.55126550  0.49176534     0.38300
H1763       H  0.99312764  0.61124713  0.45272517     0.33700
H1764       H  0.01646411  0.62251583  0.43278609     0.30400
H1765       H  0.13400082  0.71900957  0.45390315     0.33700
H1766       H  0.09264421  0.68347739  0.46079241     0.30400
H1767       H  0.05245216  0.64609795  0.37615385     0.38300
H1768       H  0.05903202  0.60981108  0.37939014     0.33800
C1769       C  0.44543604  0.95176395  0.46825321    -0.20000
C1770       C  0.42764115  0.96761458  0.45791560     0.36200
C1771       C  0.40094253  0.94608581  0.44441120    -0.26000
C1772       C  0.39123723  0.90891768  0.44087163     0.02700
C1773       C  0.40956682  0.89317457  0.45095734     0.27500
C1774       C  0.43614560  0.91468852  0.46454739    -0.25100
N1775       N  0.43629610  0.00539819  0.46133018    -0.82500
H1776       H  0.38705160  0.95824685  0.43672064     0.13300
C1777       C  0.36132416  0.88784409  0.42683148     0.02600
N1778       N  0.40270967  0.85599897  0.44757667    -0.81000
H1779       H  0.44935823  0.90210767  0.47244595     0.18100
C1780       C  0.36704255  0.90122614  0.40861046    -0.25900
C1781       C  0.33792524  0.88613359  0.39549958     0.36100
C1782       C  0.30199509  0.85698878  0.40067612    -0.19900
C1783       C  0.29684596  0.84193717  0.41858306    -0.25200
C1784       C  0.32600866  0.85744021  0.43180355     0.27500
H1785       H  0.39415661  0.92441293  0.40477039     0.13300
N1786       N  0.34447089  0.90087727  0.37700100    -0.82400
H1787       H  0.26936968  0.81968211  0.42263152     0.18100
N1788       N  0.31948063  0.84344040  0.45043245    -0.81000
H1789       H  0.37218457  0.92239242  0.37545467     0.33800
H1790       H  0.34085223  0.87947720  0.36804295     0.38300
H1791       H  0.32166523  0.86468270  0.45909502     0.33700
H1792       H  0.29217098  0.82106655  0.45185491     0.30400
H1793       H  0.38990508  0.84001473  0.45936400     0.33700
H1794       H  0.38438332  0.84336362  0.43652257     0.30400
H1795       H  0.46422434  0.02319295  0.45768265     0.38300
H1796       H  0.42023959  0.01250460  0.45284372     0.33800
C1797       C  0.89472613  0.70343791  0.19439407    -0.20000
C1798       C  0.91163145  0.68664578  0.20461374     0.36200
C1799       C  0.93873201  0.70722377  0.21815665    -0.26000
C1800       C  0.94888173  0.74432500  0.22236914     0.02700
C1801       C  0.93092834  0.76091407  0.21261224     0.27500
C1802       C  0.90511459  0.74071248  0.19845370    -0.25100
N1803       N  0.90042048  0.64817232  0.20172999    -0.82500
H1804       H  0.95178886  0.69390742  0.22558595     0.13300
C1805       C  0.97845440  0.76460780  0.23680290     0.02600
N1806       N  0.93721793  0.79758320  0.21694485    -0.81000
H1807       H  0.89237151  0.75409739  0.19083499     0.18100
C1808       C  0.01247213  0.79657855  0.23200855    -0.25900
C1809       C  0.04235651  0.81408665  0.24480034     0.36100
C1810       C  0.03855322  0.79877538  0.26271285    -0.19900
C1811       C  0.00389511  0.76763251  0.26763947    -0.25200
C1812       C  0.97388506  0.75070940  0.25501301     0.27500
H1813       H  0.01604262  0.80731511  0.21803569     0.13300
N1814       N  0.07713908  0.84594719  0.23926224    -0.82400
H1815       H  0.00047377  0.75580246  0.28136445     0.18100
N1816       N  0.93894276  0.71891606  0.26049589    -0.81000
H1817       H  0.07594535  0.85251773  0.22540306     0.33800
H1818       H  0.08043997  0.86878485  0.24697105     0.38300
H1819       H  0.94009854  0.71191227  0.27428388     0.33700
H1820       H  0.91837593  0.72665840  0.25977581     0.30400
H1821       H  0.91150305  0.79464142  0.22097011     0.33700
H1822       H  0.95490095  0.80908215  0.22831847     0.30400
H1823       H  0.92416380  0.64662689  0.19809829     0.38300
H1824       H  0.89025540  0.63401394  0.21425502     0.33800
C1825       C  0.93851828  0.36646861  0.07146420    -0.20000
C1826       C  0.90182763  0.35061794  0.07873427     0.36200
C1827       C  0.88926431  0.32136582  0.09175087    -0.26000
C1828       C  0.91241654  0.30744774  0.09769391     0.02700
C1829       C  0.94923072  0.32362179  0.09070781     0.27500
C1830       C  0.96176273  0.35268386  0.07759004    -0.25100
N1831       N  0.87687146  0.36312112  0.07233455    -0.82500
H1832       H  0.86090628  0.30869492  0.09702063     0.13300
C1833       C  0.89720351  0.27505015  0.11072509     0.02600
N1834       N  0.97363878  0.31028044  0.09688945    -0.81000
H1835       H  0.98981373  0.36451708  0.07200871     0.18100
C1836       C  0.89377923  0.24115749  0.10461475    -0.25900
C1837       C  0.87943098  0.20966737  0.11616621     0.36100
C1838       C  0.86698828  0.21132216  0.13414425    -0.19900
C1839       C  0.87022666  0.24507046  0.14024610    -0.25200
C1840       C  0.88568352  0.27706207  0.12897344     0.27500
H1841       H  0.90284620  0.23932233  0.09078742     0.13300
N1842       N  0.87933952  0.17694699  0.10957651    -0.82400
H1843       H  0.86195967  0.24697389  0.15424666     0.18100
N1844       N  0.89031461  0.31112568  0.13680576    -0.81000
H1845       H  0.85181022  0.15475332  0.10952500     0.33800
H1846       H  0.89500995  0.17053736  0.11871511     0.38300
H1847       H  0.90796075  0.31765169  0.14827332     0.33700
H1848       H  0.90401564  0.33364999  0.12776059     0.30400
H1849       H  0.99970409  0.32492143  0.09037104     0.33700
H1850       H  0.97843964  0.31612910  0.11101226     0.30400
H1851       H  0.87135716  0.35597707  0.05836407     0.38300
H1852       H  0.85113033  0.34888866  0.07918508     0.33800
C1853       C  0.79237199  0.13679436  0.13301880    -0.20000
C1854       C  0.77647362  0.10255398  0.12331942     0.36200
C1855       C  0.74696910  0.09301863  0.11080840    -0.26000
C1856       C  0.73263734  0.11695439  0.10748401     0.02700
C1857       C  0.74869084  0.15161884  0.11698210     0.27500
C1858       C  0.77804296  0.16086947  0.12970068    -0.25100
N1859       N  0.79065778  0.07748876  0.12590849    -0.82500
H1860       H  0.73522373  0.06663227  0.10351109     0.13300
C1861       C  0.70213295  0.10518300  0.09345868     0.02600
N1862       N  0.73627284  0.17816584  0.11407813    -0.81000
H1863       H  0.78938258  0.18693508  0.13722430     0.18100
C1864       C  0.66524950  0.09369436  0.09901219    -0.25900
C1865       C  0.63569417  0.08005378  0.08612340     0.36100
C1866       C  0.64278147  0.07686426  0.06721499    -0.19900
C1867       C  0.67984253  0.08871342  0.06176847    -0.25200
C1868       C  0.70949945  0.10316711  0.07460003     0.27500
H1869       H  0.65935288  0.09498211  0.11350568     0.13300
N1870       N  0.59876478  0.06858584  0.09276429    -0.82400
H1871       H  0.68582952  0.08710289  0.04731860     0.18100
N1872       N  0.74719167  0.11568051  0.06859437    -0.81000
H1873       H  0.58935436  0.08528542  0.08659996     0.33800
H1874       H  0.58100886  0.04078226  0.08891617     0.38300
H1875       H  0.74799353  0.11227647  0.05430371     0.33700
H1876       H  0.76295381  0.14436165  0.07116987     0.30400
H1877       H  0.75881261  0.20239939  0.10863100     0.33700
H1878       H  0.71489653  0.16880128  0.10425444     0.30400
H1879       H  0.76859613  0.05184925  0.13042232     0.38300
H1880       H  0.79964509  0.07326705  0.11308751     0.33800
C1881       C  0.83213252  0.09635161  0.18947325    -0.20000
C1882       C  0.85373525  0.07891394  0.19225475     0.36200
C1883       C  0.84486605  0.05350131  0.20698539    -0.26000
C1884       C  0.81422109  0.04438669  0.21868442     0.02700
C1885       C  0.79164884  0.06086491  0.21531228     0.27500
C1886       C  0.80126050  0.08686104  0.20094361    -0.25100
N1887       N  0.88462581  0.08725576  0.18017568    -0.82500
H1888       H  0.86191083  0.04068420  0.20937944     0.13300
C1889       C  0.80596655  0.01722701  0.23403362     0.02600
N1890       N  0.75862533  0.05181634  0.22592045    -0.81000
H1891       H  0.78449070  0.10006371  0.19877379     0.18100
C1892       C  0.80629522  0.02846412  0.25239475    -0.25900
C1893       C  0.79361655  0.00237489  0.26697133     0.36100
C1894       C  0.78180104  0.96456872  0.26320692    -0.19900
C1895       C  0.78443448  0.95396280  0.24507438    -0.25200
C1896       C  0.79577430  0.97976996  0.23038792     0.27500
H1897       H  0.81480204  0.05739218  0.25519626     0.13300
N1898       N  0.79189829  0.01390591  0.28551579    -0.82400
H1899       H  0.77524907  0.92491707  0.24216974     0.18100
N1900       N  0.79551959  0.96778388  0.21170638    -0.81000
H1901       H  0.80126677  0.04253280  0.28593653     0.33800
H1902       H  0.81049751  0.00960796  0.29357797     0.38300
H1903       H  0.78728950  0.93940494  0.21136943     0.33700
H1904       H  0.77519609  0.97067048  0.20439957     0.30400
H1905       H  0.73599276  0.04132491  0.21674846     0.33700
H1906       H  0.75211904  0.03035035  0.23534259     0.30400
H1907       H  0.87372171  0.07800418  0.16693576     0.38300
H1908       H  0.89777873  0.07226847  0.18412789     0.33800
C1909       C  0.39660374  0.23069548  0.14149517    -0.20000
C1910       C  0.38918365  0.22024347  0.12268547     0.36200
C1911       C  0.40842567  0.24698488  0.10882239    -0.26000
C1912       C  0.43334711  0.28453101  0.11319183     0.02700
C1913       C  0.43937149  0.29544572  0.13203386     0.27500
C1914       C  0.42147290  0.26831890  0.14586212    -0.25100
N1915       N  0.36129811  0.18285566  0.11770284    -0.82500
H1916       H  0.40266089  0.23889325  0.09441490     0.13300
C1917       C  0.44710975  0.31207091  0.09776495     0.02600
N1918       N  0.46185567  0.33375737  0.13770088    -0.81000
H1919       H  0.42674670  0.27682509  0.16022992     0.18100
C1920       C  0.42100271  0.31891475  0.08893085    -0.25900
C1921       C  0.43111281  0.34401638  0.07411692     0.36100
C1922       C  0.46905887  0.36404644  0.06811157    -0.19900
C1923       C  0.49526843  0.35661048  0.07686592    -0.25200
C1924       C  0.48455305  0.33045024  0.09149417     0.27500
H1925       H  0.39219350  0.30427250  0.09366238     0.13300
N1926       N  0.40277894  0.34963860  0.06555073    -0.82400
H1927       H  0.52418386  0.37129905  0.07234062     0.18100
N1928       N  0.51123962  0.32198272  0.09970920    -0.81000
H1929       H  0.37745146  0.33541042  0.07274892     0.33800
H1930       H  0.39758579  0.33736337  0.05245081     0.38300
H1931       H  0.53726773  0.33715656  0.09321044     0.33700
H1932       H  0.51519127  0.33093941  0.11344714     0.30400
H1933       H  0.48469746  0.33607609  0.14514137     0.33700
H1934       H  0.47267869  0.35184668  0.12644455     0.30400
H1935       H  0.33540420  0.17853768  0.12233142     0.38300
H1936       H  0.35935689  0.17965857  0.10333444     0.33800
C1937       C  0.48162970  0.10875185  0.07069836    -0.20000
C1938       C  0.49512071  0.11179175  0.08895797     0.36200
C1939       C  0.48084029  0.12461953  0.10306079    -0.26000
C1940       C  0.45322904  0.13410067  0.09930183     0.02700
C1941       C  0.44161552  0.13354320  0.08088667     0.27500
C1942       C  0.45563898  0.12044985  0.06680327    -0.25100
N1943       N  0.52169141  0.09998326  0.09331747    -0.82500
H1944       H  0.48992624  0.12553450  0.11721378     0.13300
C1945       C  0.43504544  0.14210241  0.11496092     0.02600
N1946       N  0.41578695  0.14633770  0.07656837    -0.81000
H1947       H  0.44555966  0.11847443  0.05276955     0.18100
C1948       C  0.45554892  0.17557800  0.12481669    -0.25900
C1949       C  0.43934133  0.18455221  0.13964131     0.36100
C1950       C  0.40140587  0.16020980  0.14419840    -0.19900
C1951       C  0.38155153  0.12594206  0.13489788    -0.25200
C1952       C  0.39794546  0.11630286  0.12056409     0.27500
H1953       H  0.48431996  0.19471016  0.12092250     0.13300
N1954       N  0.46118836  0.21815774  0.15010650    -0.82400
H1955       H  0.35270564  0.10664980  0.13862731     0.18100
N1956       N  0.37635570  0.07983407  0.11242308    -0.81000
H1957       H  0.48852303  0.23301838  0.14498686     0.33800
H1958       H  0.46306575  0.21033559  0.16364469     0.38300
H1959       H  0.35334458  0.07876603  0.10572013     0.33700
H1960       H  0.39148848  0.07453250  0.10251759     0.30400
H1961       H  0.41120066  0.14531331  0.06230332     0.33700
H1962       H  0.38996972  0.12786584  0.08252435     0.30400
H1963       H  0.50848881  0.07112752  0.09120891     0.38300
H1964       H  0.52900591  0.10445584  0.10731056     0.33800
C1965       C  0.23801571  0.96505909  0.26196553    -0.20000
C1966       C  0.27487587  0.97903742  0.25524357     0.36200
C1967       C  0.29032775  0.00960906  0.24297223    -0.26000
C1968       C  0.27015520  0.02722064  0.23760058     0.02700
C1969       C  0.23292582  0.01250878  0.24383713     0.27500
C1970       C  0.21707552  0.98127361  0.25572806    -0.25100
N1971       N  0.29660175  0.96234592  0.26105489    -0.82500
H1972       H  0.31859014  0.02035145  0.23785658     0.13300
C1973       C  0.28820328  0.06077229  0.22528574     0.02600
N1974       N  0.21175584  0.03006968  0.23850593    -0.81000
H1975       H  0.18894923  0.97085088  0.26096129     0.18100
C1976       C  0.27194641  0.05899774  0.20794462    -0.25900
C1977       C  0.28828304  0.08913149  0.19543493     0.36100
C1978       C  0.32186275  0.12171574  0.20019551    -0.19900
C1979       C  0.33871120  0.12324095  0.21728005    -0.25200
C1980       C  0.32177457  0.09391671  0.23015668     0.27500
H1981       H  0.24664842  0.03364453  0.20402634     0.13300
N1982       N  0.27177529  0.08625648  0.17756205    -0.82400
H1983       H  0.36546094  0.14742884  0.22065386     0.18100
N1984       N  0.33943397  0.09907542  0.24793689    -0.81000
H1985       H  0.24758081  0.06023441  0.17599942     0.33800
H1986       H  0.26335354  0.10627627  0.17695823     0.38300
H1987       H  0.34066884  0.12263633  0.25400216     0.33700
H1988       H  0.32333415  0.07706935  0.25691229     0.30400
H1989       H  0.18490653  0.01595494  0.24425173     0.33700
H1990       H  0.22510398  0.05696548  0.24413303     0.30400
H1991       H  0.28320522  0.93491403  0.25611107     0.38300
H1992       H  0.32319198  0.97605340  0.25500709     0.33800
C1993       C  0.32359676  0.31394648  0.34599497    -0.20000
C1994       C  0.33075421  0.29333798  0.33263170     0.36200
C1995       C  0.36559969  0.29519150  0.33258061    -0.26000
C1996       C  0.39291708  0.31654848  0.34574130     0.02700
C1997       C  0.38491539  0.33477735  0.35989340     0.27500
C1998       C  0.35024822  0.33333013  0.35989113    -0.25100
N1999       N  0.30310419  0.27138701  0.31893960    -0.82500
H2000       H  0.37194310  0.28072714  0.32194066     0.13300
C2001       C  0.43013015  0.32017644  0.34410734     0.02600
N2002       N  0.41234392  0.35528212  0.37391540    -0.81000
H2003       H  0.34485372  0.34892714  0.37028259     0.18100
C2004       C  0.46125974  0.35524322  0.34022005    -0.25900
C2005       C  0.49676315  0.35918740  0.33728689     0.36100
C2006       C  0.50084599  0.32726285  0.33837657    -0.19900
C2007       C  0.46935660  0.29227918  0.34238035    -0.25200
C2008       C  0.43416272  0.28848272  0.34536846     0.27500
H2009       H  0.45759638  0.37939260  0.33911147     0.13300
N2010       N  0.52828745  0.39518034  0.33300215    -0.82400
H2011       H  0.47223755  0.26770085  0.34359364     0.18100
N2012       N  0.40245594  0.25263592  0.34976786    -0.81000
H2013       H  0.52044001  0.41566058  0.33298287     0.33800
H2014       H  0.53674201  0.39392968  0.31952243     0.38300
H2015       H  0.41012376  0.23203095  0.35005390     0.33700
H2016       H  0.39379283  0.25425385  0.36314997     0.30400
H2017       H  0.40213801  0.36740058  0.38323798     0.33700
H2018       H  0.41660975  0.33612299  0.38146512     0.30400
H2019       H  0.31317683  0.25848953  0.31002799     0.38300
H2020       H  0.28016366  0.24996702  0.32587293     0.33800
C2021       C  0.83803078  0.33362144  0.32566010    -0.20000
C2022       C  0.86871992  0.36588479  0.31796309     0.36200
C2023       C  0.90358970  0.36823559  0.31698515    -0.26000
C2024       C  0.90813708  0.33871939  0.32294716     0.02700
C2025       C  0.87747859  0.30567105  0.32978424     0.27500
C2026       C  0.84234796  0.30336553  0.33109029    -0.25100
N2027       N  0.86422490  0.39591042  0.31083519    -0.82500
H2028       H  0.92748354  0.39324088  0.31154082     0.13300
C2029       C  0.94594539  0.34409218  0.32242404     0.02600
N2030       N  0.88241244  0.27515234  0.33565199    -0.81000
H2031       H  0.81861561  0.27840304  0.33664090     0.18100
C2032       C  0.96905215  0.36012023  0.33777954    -0.25900
C2033       C  0.00622721  0.36795365  0.33759635     0.36100
C2034       C  0.01986678  0.35813485  0.32181734    -0.19900
C2035       C  0.99704141  0.34431343  0.30600993    -0.25200
C2036       C  0.96017410  0.33740796  0.30615116     0.27500
H2037       H  0.95801281  0.36678974  0.34988225     0.13300
N2038       N  0.02970748  0.38515519  0.35345928    -0.82400
H2039       H  0.00738090  0.33747544  0.29371710     0.18100
N2040       N  0.93711334  0.32374041  0.28989395    -0.81000
H2041       H  0.01490788  0.38965335  0.36392440     0.33800
H2042       H  0.05113371  0.41152316  0.34936862     0.38300
H2043       H  0.95207365  0.32085168  0.27896988     0.33700
H2044       H  0.91499007  0.29698462  0.29284755     0.30400
H2045       H  0.85708233  0.25302756  0.34046013     0.33700
H2046       H  0.88981753  0.26524919  0.32403193     0.30400
H2047       H  0.88951642  0.41711058  0.30548714     0.38300
H2048       H  0.84567031  0.38546071  0.29967005     0.33800
C2049       C  0.03835933  0.48123154  0.47426832    -0.20000
C2050       C  0.02570736  0.47560641  0.45568710     0.36200
C2051       C  0.04199438  0.46281409  0.44266362    -0.26000
C2052       C  0.06903430  0.45318286  0.44778383     0.02700
C2053       C  0.08119384  0.45814687  0.46636400     0.27500
C2054       C  0.06619505  0.47263429  0.47927547    -0.25100
N2055       N  0.99487483  0.48003745  0.44969962    -0.82500
H2056       H  0.03233606  0.45899529  0.42846724     0.13300
C2057       C  0.08315923  0.43656391  0.43372898     0.02600
N2058       N  0.10780318  0.44732180  0.47219059    -0.81000
H2059       H  0.07545560  0.47623425  0.49354012     0.18100
C2060       C  0.12184159  0.45238214  0.43083101    -0.25900
C2061       C  0.13620630  0.43767422  0.41763885     0.36100
C2062       C  0.11118774  0.40674590  0.40660399    -0.19900
C2063       C  0.07244520  0.39077643  0.40974358    -0.25200
C2064       C  0.05826085  0.40499977  0.42323250     0.27500
H2065       H  0.14100759  0.47665495  0.43883053     0.13300
N2066       N  0.17604803  0.45489985  0.41514253    -0.82400
H2067       H  0.05291153  0.36702362  0.40155706     0.18100
N2068       N  0.01855993  0.38738884  0.42633585    -0.81000
H2069       H  0.19016569  0.47859443  0.42348558     0.33800
H2070       H  0.18409093  0.43599223  0.41985130     0.38300
H2071       H  0.00403990  0.36470535  0.41742397     0.33700
H2072       H  0.01331208  0.37659165  0.43977457     0.30400
H2073       H  0.11376929  0.45272181  0.48628352     0.33700
H2074       H  0.09523798  0.41840480  0.47054044     0.30400
H2075       H  0.98200572  0.48559858  0.46067412     0.38300
H2076       H  0.00543306  0.50282551  0.44067115     0.33800
C2077       C  0.30500808  0.44159869  0.40216858    -0.20000
C2078       C  0.29805992  0.44862458  0.42047756     0.36200
C2079       C  0.32730794  0.46246317  0.43359489    -0.26000
C2080       C  0.36340931  0.46990317  0.42876229     0.02700
C2081       C  0.37086271  0.46521905  0.41021948     0.27500
C2082       C  0.34155800  0.45068049  0.39720951    -0.25100
N2083       N  0.26104162  0.43997558  0.42595403    -0.82500
H2084       H  0.32156605  0.46592260  0.44785210     0.13300
C2085       C  0.39192794  0.47821957  0.44349675     0.02600
N2086       N  0.40807107  0.47438584  0.40482084    -0.81000
H2087       H  0.34711791  0.44572189  0.38316286     0.18100
C2088       C  0.40530835  0.45311347  0.44572624    -0.25900
C2089       C  0.43183172  0.45849058  0.45937124     0.36100
C2090       C  0.44449108  0.48899676  0.47159161    -0.19900
C2091       C  0.43075638  0.51386766  0.46963337    -0.25200
C2092       C  0.40535487  0.50944785  0.45551690     0.27500
H2093       H  0.39507023  0.42915410  0.43663158     0.13300
N2094       N  0.44639452  0.43336973  0.46070400    -0.82400
H2095       H  0.44055061  0.53748706  0.47892182     0.18100
N2096       N  0.39469431  0.53756927  0.45364759    -0.81000
H2097       H  0.43418784  0.41235957  0.45071199     0.33800
H2098       H  0.47499669  0.44859977  0.45767007     0.38300
H2099       H  0.41911225  0.56303250  0.45118926     0.33700
H2100       H  0.37774536  0.53286149  0.44209781     0.30400
H2101       H  0.40892303  0.46916633  0.39073890     0.33700
H2102       H  0.42551426  0.50312810  0.40670556     0.30400
H2103       H  0.24369120  0.41099898  0.42518198     0.38300
H2104       H  0.26086033  0.44732792  0.43976719     0.33800
C2105       C  0.04244317  0.23917241  0.26247563    -0.20000
C2106       C  0.01738038  0.25253473  0.25839605     0.36200
C2107       C  0.99003883  0.23507993  0.24458780    -0.26000
C2108       C  0.98698636  0.20491111  0.23440414     0.02700
C2109       C  0.01177349  0.19150484  0.23819946     0.27500
C2110       C  0.03923013  0.20872976  0.25216476    -0.25100
N2111       N  0.02009720  0.28438084  0.26789090    -0.82500
H2112       H  0.97120901  0.24555781  0.24145427     0.13300
C2113       C  0.95785335  0.18865489  0.21962954     0.02600
N2114       N  0.00886978  0.16044196  0.22790062    -0.81000
H2115       H  0.05820598  0.19831065  0.25497607     0.18100
C2116       C  0.96911483  0.19306283  0.20103308    -0.25900
C2117       C  0.94292495  0.18314664  0.18656759     0.36100
C2118       C  0.90471514  0.16947233  0.19060795    -0.19900
C2119       C  0.89359739  0.16496657  0.20923998    -0.25200
C2120       C  0.91921603  0.17286846  0.22369928     0.27500
H2121       H  0.99855069  0.20505586  0.19771175     0.13300
N2122       N  0.95526797  0.18698415  0.16777642    -0.82400
H2123       H  0.86458340  0.15509631  0.21269454     0.18100
N2124       N  0.90490396  0.16446290  0.24228129    -0.81000
H2125       H  0.96811012  0.17084919  0.16601605     0.33800
H2126       H  0.97544087  0.21495073  0.16554113     0.38300
H2127       H  0.88588075  0.13574530  0.24290088     0.33700
H2128       H  0.92587007  0.16923251  0.25178873     0.30400
H2129       H  0.02910930  0.15392601  0.23232933     0.33700
H2130       H  0.98279295  0.13720314  0.23087875     0.30400
H2131       H  0.04507854  0.30781730  0.26370529     0.38300
H2132       H  0.99854290  0.28928957  0.26387089     0.33800
C2133       C  0.31773992  0.19385119  0.19844356    -0.20000
C2134       C  0.29027779  0.20233113  0.19215370     0.36200
C2135       C  0.27385980  0.21611563  0.20466736    -0.26000
C2136       C  0.28376364  0.22114954  0.22343890     0.02700
C2137       C  0.30963564  0.21058099  0.22996025     0.27500
C2138       C  0.32684735  0.19802132  0.21733732    -0.25100
N2139       N  0.27979061  0.19769996  0.17296126    -0.82500
H2140       H  0.25369914  0.22367129  0.19969671     0.13300
C2141       C  0.26765505  0.23859384  0.23570284     0.02600
N2142       N  0.31888745  0.21180824  0.24923001    -0.81000
H2143       H  0.34849471  0.19277081  0.22233731     0.18100
C2144       C  0.22988748  0.21802838  0.24089986    -0.25900
C2145       C  0.21410243  0.23288761  0.25304198     0.36100
C2146       C  0.23651497  0.26940865  0.26035815    -0.19900
C2147       C  0.27399932  0.29043252  0.25449356    -0.25200
C2148       C  0.28965825  0.27560584  0.24212852     0.27500
H2149       H  0.21270062  0.18979866  0.23578273     0.13300
N2150       N  0.17571155  0.20949436  0.25823739    -0.82400
H2151       H  0.29136618  0.31848077  0.25978431     0.18100
N2152       N  0.32761319  0.29821480  0.23583267    -0.81000
H2153       H  0.16054498  0.22236380  0.25412691     0.33800
H2154       H  0.17418697  0.20628859  0.27260390     0.38300
H2155       H  0.33941059  0.32524189  0.24122345     0.33700
H2156       H  0.34334201  0.28688312  0.24114996     0.30400
H2157       H  0.34723394  0.23157166  0.25084057     0.33700
H2158       H  0.30370845  0.22025312  0.25749193     0.30400
H2159       H  0.26719428  0.16923314  0.16990278     0.38300
H2160       H  0.25962776  0.20551937  0.17052266     0.33800
loop_ 
_geom_bond_atom_site_label_1 
_geom_bond_atom_site_label_2 
_geom_bond_distance 
_geom_bond_site_symmetry_2 
_ccdc_geom_bond_type 
O1           Mg3   2.174       .  S
O1           Mg9   2.152       .  S
O1           C36   1.234       .  S
C2           O15   1.233       .  S
C2           O39   1.266       .  A
C2           H41   1.081       .  S
Mg3          O32   2.160       .  S
Mg3          O47   2.254       .  S
Mg3          O43   2.282       .  S
Mg3          O14   2.280       .  S
O4          Mg46   2.168       .  S
O4          Mg29   2.156       .  S
O4           C25   1.239       .  S
O5           C36   1.270       .  A
O5          Mg29   2.308       .  S
C6            O8   1.275       .  A
C6           O20   1.278       .  A
C6         C2077   1.488       .  S
O7           C35   1.273       .  A
O7           Mg9   2.305       .  S
O8          Mg40   2.285       .  S
Mg9          O15   2.120       .  S
Mg9          O23   2.232       .  S
Mg9          O11   2.310       .  S
C10          O48   1.267       .  A
C10          O16   1.270       .  A
C10        C1993   1.474       .  S
O11          C18   1.276       .  A
H12          C25   1.081       .  S
C13          O27   1.234       .  S
C13          O28   1.270       .  A
C13          H38   1.081       .  S
O14          C37   1.266       .  A
O15         Mg29   2.154       .  S
O16         Mg46   2.264       .  S
C17          O30   1.274       .  A
C17          O22   1.278       .  A
C17        C2146   1.496       .  S
C18          O45   1.278       .  A
C18        C2105   1.503       .  S
Mg19         O26   2.113       .  S
Mg19         O27   2.157       .  S
Mg19         O20   2.321       .  S
Mg19         O21   2.309       .  S
Mg19         O48   2.226       .  S
O21          C25   1.274       .  A
O22         Mg29   2.331       .  S
O23          C42   1.268       .  A
O24          C44   1.276       .  A
O24         Mg40   2.320       .  S
O26         Mg40   2.150       .  S
O26          C37   1.233       .  S
O27         Mg46   2.171       .  S
O28         Mg40   2.306       .  S
Mg29         O45   2.308       .  S
O30         Mg46   2.276       .  S
H31          C36   1.081       .  S
O32         Mg40   2.141       .  S
O32          C35   1.238       .  S
H33          C35   1.081       .  S
H34          C37   1.081       .  S
O39         Mg46   2.286       .  S
C42          O47   1.267       .  A
C42        C2034   1.477       .  S
O43          C44   1.274       .  A
C44        C2062   1.501       .  S
C49        C1978   1.490       .  S
C49          C50   1.421       .  A
C49          C54   1.405       .  A
C50        C2133   1.500       .  S
C50          C51   1.412       .  A
C51          H56   1.084       .  S
C51          C52   1.409       .  A
C52        C1909   1.499       .  S
C52          C53   1.419       .  A
C53        C1950   1.492       .  S
C53          C54   1.406       .  A
C54          H55   1.085       .  S
C57        C1881   1.491       .  S
C57          C58   1.418       .  A
C57          C62   1.408       .  A
C58        C2118   1.502       .  S
C58          C59   1.407       .  A
C59          H64   1.084       .  S
C59          C60   1.410       .  A
C60        C1838   1.491       .  S
C60          C61   1.422       .  A
C61        C1853   1.503       .  S
C61          C62   1.411       .  A
C62          H63   1.084       .  S
O65         Mg67   2.150       .  S
O65         Mg73   2.146       .  S
O65         C100   1.236       .  S
C66          O79   1.235       .  S
C66         O103   1.269       .  A
C66         H105   1.081       .  S
Mg67         O96   2.174       .  S
Mg67        O111   2.319       .  S
Mg67        O107   2.253       .  S
Mg67         O78   2.288       .  S
O68        Mg110   2.162       .  S
O68         Mg93   2.173       .  S
O68          C89   1.238       .  S
O69         C100   1.270       .  A
O69         Mg93   2.302       .  S
C70          O72   1.281       .  A
C70          O84   1.274       .  A
C70        C1810   1.500       .  S
O71          C99   1.273       .  A
O71         Mg73   2.305       .  S
O72        Mg104   2.342       .  S
Mg73         O79   2.145       .  S
Mg73         O87   2.272       .  S
Mg73         O75   2.292       .  S
C74         O112   1.269       .  A
C74          O80   1.277       .  A
C74        C1726   1.497       .  S
O75          C82   1.274       .  A
H76          C89   1.081       .  S
C77          O91   1.237       .  S
C77          O92   1.272       .  A
C77         H102   1.081       .  S
O78         C101   1.268       .  A
O79         Mg93   2.161       .  S
O80        Mg110   2.324       .  S
C81          O94   1.274       .  A
C81          O86   1.280       .  A
C81        C1741   1.490       .  S
C82         O109   1.278       .  A
C82        C1782   1.491       .  S
Mg83         O90   2.136       .  S
Mg83         O91   2.151       .  S
Mg83         O84   2.294       .  S
Mg83         O85   2.307       .  S
Mg83        O112   2.250       .  S
O85          C89   1.273       .  A
O86         Mg93   2.337       .  S
O87         C106   1.272       .  A
O88         C108   1.283       .  A
O88        Mg104   2.355       .  S
O90        Mg104   2.157       .  S
O90         C101   1.234       .  S
O91        Mg110   2.166       .  S
O92        Mg104   2.313       .  S
Mg93        O109   2.321       .  S
O94        Mg110   2.272       .  S
H95         C100   1.081       .  S
O96        Mg104   2.174       .  S
O96          C99   1.239       .  S
H97          C99   1.081       .  S
H98         C101   1.081       .  S
O103       Mg110   2.297       .  S
C106        O111   1.276       .  A
C106       C1698   1.500   1_565  S
O107        C108   1.273       .  A
C108       C1965   1.488       .  S
O113       Mg115   2.140       .  S
O113       Mg121   2.143       .  S
O113        C148   1.234       .  S
C114        O127   1.234       .  S
C114        O151   1.268       .  A
C114        H153   1.081       .  S
Mg115       O144   2.163       .  S
Mg115       O159   2.288       .  S
Mg115       O155   2.236       .  S
Mg115       O126   2.287       .  S
O116       Mg158   2.171       .  S
O116       Mg141   2.181       .  S
O116        C137   1.238       .  S
O117        C148   1.268       .  A
O117       Mg141   2.298       .  S
C118        O120   1.274       .  A
C118        O132   1.276       .  A
C118       C1894   1.483       .  S
O119        C147   1.272       .  A
O119       Mg121   2.303       .  S
O120       Mg152   2.286       .  S
Mg121       O127   2.142       .  S
Mg121       O135   2.272       .  S
Mg121       O123   2.276       .  S
C122        O160   1.269       .  A
C122        O128   1.276       .  A
C122       C1558   1.493       .  S
O123        C130   1.272       .  A
H124        C137   1.081       .  S
C125        O139   1.236       .  S
C125        O140   1.271       .  A
C125        H150   1.081       .  S
O126        C149   1.267       .  A
O127       Mg141   2.176       .  S
O128       Mg158   2.315       .  S
C129        O142   1.273       .  A
C129        O134   1.282       .  A
C129       C1614   1.494       .  S
C130        O157   1.282       .  A
C130       C1629   1.505       .  S
Mg131       O138   2.123       .  S
Mg131       O139   2.150       .  S
Mg131       O132   2.315       .  S
Mg131       O133   2.310       .  S
Mg131       O160   2.246       .  S
O133        C137   1.273       .  A
O134       Mg141   2.344       .  S
O135        C154   1.271       .  A
O136        C156   1.275       .  A
O136       Mg152   2.306       .  S
O138       Mg152   2.148       .  S
O138        C149   1.234       .  S
O139       Mg158   2.161       .  S
O140       Mg152   2.307       .  S
Mg141       O157   2.344       .  S
O142       Mg158   2.265       .  S
H143        C148   1.081       .  S
O144       Mg152   2.153       .  S
O144        C147   1.237       .  S
H145        C147   1.081       .  S
H146        C149   1.081       .  S
O151       Mg158   2.293       .  S
C154        O159   1.273       .  A
C154       C1586   1.487       .  S
O155        C156   1.270       .  A
C156       C1670   1.482       .  S
C161       C1797   1.507       .  S
C161        C162   1.420       .  A
C161        C166   1.413       .  A
C162       C1657   1.485       .  S
C162        C163   1.403       .  A
C163        H168   1.085       .  S
C163        C164   1.399       .  A
C164       C1530   1.496       .  S
C164        C165   1.418       .  A
C165       C1489   1.493       .  S
C165        C166   1.414       .  A
C166        H167   1.084       .  S
O169       Mg171   2.155   1_554  S
O169       Mg177   2.161       .  S
O169        C204   1.235       .  S
C170        O183   1.234   1_565  S
C170        O207   1.268       .  A
C170        H209   1.081       .  S
Mg171       O200   2.161   1_545  S
Mg171       O215   2.243   1_545  S
Mg171       O211   2.280   1_545  S
Mg171       O182   2.282       .  S
O172       Mg214   2.148       .  S
O172       Mg197   2.157       .  S
O172        C193   1.238   1_554  S
O173        C204   1.270       .  A
O173       Mg197   2.302       .  S
C174        O176   1.272       .  A
C174        O188   1.274       .  A
C174       C1474   1.475       .  S
O175        C203   1.271       .  A
O175       Mg177   2.295   1_565  S
O176       Mg208   2.265       .  S
Mg177       O183   2.140       .  S
Mg177       O191   2.262       .  S
Mg177       O179   2.300       .  S
C178        O216   1.266       .  A
C178        O184   1.272       .  A
C178       C1377   1.473       .  S
O179        C186   1.275       .  A
H180        C193   1.081       .  S
C181        O195   1.235       .  S
C181        O196   1.271       .  A
C181        H206   1.081   1_556  S
O182        C205   1.266       .  A
O183       Mg197   2.152       .  S
O184       Mg214   2.290   1_556  S
C185        O198   1.274       .  A
C185        O190   1.278       .  A
C185       C1866   1.494       .  S
C186        O213   1.275       .  A
C186       C1937   1.482       .  S
Mg187       O194   2.127   1_545  S
Mg187       O195   2.145   1_545  S
Mg187       O188   2.302   1_545  S
Mg187       O189   2.317       .  S
Mg187       O216   2.232       .  S
O189        C193   1.274       .  A
O190       Mg197   2.339       .  S
O191        C210   1.271   1_545  A
O192        C212   1.278       .  A
O192       Mg208   2.331       .  S
O194       Mg208   2.164       .  S
O194        C205   1.233   1_565  S
O195       Mg214   2.174   1_566  S
O196       Mg208   2.312       .  S
Mg197       O213   2.287       .  S
O198       Mg214   2.275       .  S
H199        C204   1.081   1_556  S
O200       Mg208   2.128       .  S
O200        C203   1.238   1_556  S
H201        C203   1.081       .  S
H202        C205   1.081       .  S
O207       Mg214   2.294   1_565  S
C210        O215   1.268   1_554  A
C210       C1405   1.477       .  S
O211        C212   1.273       .  A
C212       C1446   1.497       .  S
O217       Mg219   2.143   1_556  S
O217       Mg225   2.146       .  S
O217        C252   1.235       .  S
C218        O231   1.234       .  S
C218        O255   1.267       .  A
C218        H257   1.081       .  S
Mg219       O248   2.166       .  S
Mg219       O263   2.320   1_554  S
Mg219       O259   2.248       .  S
Mg219       O230   2.294       .  S
O220       Mg262   2.167       .  S
O220       Mg245   2.158       .  S
O220        C241   1.236   1_556  S
O221        C252   1.269       .  A
O221       Mg245   2.296       .  S
C222        O224   1.277       .  A
C222        O236   1.272       .  A
C222       C1922   1.501       .  S
O223        C251   1.272       .  A
O223       Mg225   2.302       .  S
O224       Mg256   2.315       .  S
Mg225       O231   2.133       .  S
Mg225       O239   2.255       .  S
Mg225       O227   2.286       .  S
C226        O264   1.271       .  A
C226        O232   1.276   1_554  A
C226       C1278   1.496       .  S
O227        C234   1.275       .  A
H228        C241   1.081       .  S
C229        O243   1.237       .  S
C229        O244   1.272       .  A
C229        H254   1.081   1_554  S
O230        C253   1.268       .  A
O231       Mg245   2.167       .  S
O232       Mg262   2.312       .  S
C233        O246   1.273       .  A
C233        O238   1.276       .  A
C233       C1362   1.481       .  S
C234        O261   1.275       .  A
C234       C1321   1.495       .  S
Mg235       O242   2.139       .  S
Mg235       O243   2.149       .  S
Mg235       O236   2.283       .  S
Mg235       O237   2.300       .  S
Mg235       O264   2.271       .  S
O237        C241   1.271       .  A
O238       Mg245   2.312       .  S
O239        C258   1.270       .  A
O240        C260   1.279       .  A
O240       Mg256   2.332       .  S
O242       Mg256   2.159       .  S
O242        C253   1.234       .  S
O243       Mg262   2.155   1_554  S
O244       Mg256   2.310       .  S
Mg245       O261   2.297       .  S
O246       Mg262   2.253       .  S
H247        C252   1.081   1_554  S
O248       Mg256   2.166       .  S
O248        C251   1.237   1_554  S
H249        C251   1.081       .  S
H250        C253   1.081       .  S
O255       Mg262   2.289       .  S
C258        O263   1.277       .  A
C258       C1293   1.493       .  S
O259        C260   1.272       .  A
C260       C1517   1.489       .  S
O265       Mg267   2.160   1_556  S
O265       Mg273   2.155       .  S
O265        C300   1.236       .  S
C266        O279   1.234   1_655  S
C266        O303   1.267       .  A
C266        H305   1.081       .  S
Mg267       O296   2.174   1_455  S
Mg267       O311   2.302   1_455  S
Mg267       O307   2.265   1_455  S
Mg267       O278   2.290       .  S
O268       Mg310   2.169       .  S
O268       Mg293   2.151       .  S
O268        C289   1.238       .  S
O269        C300   1.272       .  A
O269       Mg293   2.310       .  S
C270        O272   1.278       .  A
C270        O284   1.273       .  A
C270       C1502   1.485       .  S
O271        C299   1.272       .  A
O271       Mg273   2.300   1_655  S
O272       Mg304   2.310       .  S
Mg273       O279   2.138       .  S
Mg273       O287   2.248   1_455  S
Mg273       O275   2.294       .  S
C274        O312   1.270       .  A
C274        O280   1.273   1_554  A
C274       C1181   1.485       .  S
O275        C282   1.273       .  A
H276        C289   1.081       .  S
C277        O291   1.236       .  S
C277        O292   1.271       .  A
C277        H302   1.081   1_554  S
O278        C301   1.266       .  A
O279       Mg293   2.153       .  S
O280       Mg310   2.300       .  S
C281        O294   1.274       .  A
C281        O286   1.282       .  A
C281       C1222   1.489       .  S
C282        O309   1.278       .  A
C282       C1237   1.485       .  S
Mg283       O290   2.141   1_455  S
Mg283       O291   2.149   1_455  S
Mg283       O284   2.286   1_455  S
Mg283       O285   2.300       .  S
Mg283       O312   2.253       .  S
O285        C289   1.272   1_554  A
O286       Mg293   2.347       .  S
O287        C306   1.268       .  A
O288        C308   1.282       .  A
O288       Mg304   2.350       .  S
O290       Mg304   2.159       .  S
O290        C301   1.233   1_655  S
O291       Mg310   2.161   1_654  S
O292       Mg304   2.309       .  S
Mg293       O309   2.311       .  S
O294       Mg310   2.267       .  S
H295        C300   1.081   1_554  S
O296       Mg304   2.156       .  S
O296        C299   1.238   1_554  S
H297        C299   1.081   1_554  S
H298        C301   1.081       .  S
O303       Mg310   2.287   1_655  S
C306        O311   1.274   1_556  A
C306       C1166   1.480       .  S
O307        C308   1.274       .  A
C308       C1825   1.492       .  S
O313       Mg315   2.153       .  S
O313       Mg321   2.166       .  S
O313        C348   1.234       .  S
C314        O327   1.234       .  S
C314        O351   1.267       .  A
C314        H353   1.081       .  S
Mg315       O344   2.151       .  S
Mg315       O359   2.265       .  S
Mg315       O355   2.272       .  S
Mg315       O326   2.294       .  S
O316       Mg358   2.151       .  S
O316       Mg341   2.162       .  S
O316        C337   1.238       .  S
O317        C348   1.268       .  A
O317       Mg341   2.294       .  S
C318        O320   1.272       .  A
C318        O332   1.277       .  A
C318       C1138   1.484       .  S
O319        C347   1.270       .  A
O319       Mg321   2.294       .  S
O320       Mg352   2.267       .  S
Mg321       O327   2.124       .  S
Mg321       O335   2.257       .  S
Mg321       O323   2.307       .  S
C322        O360   1.269       .  A
C322        O328   1.271       .  A
C322        C998   1.487       .  S
O323        C330   1.278       .  A
H324        C337   1.081       .  S
C325        O339   1.234       .  S
C325        O340   1.270       .  A
C325        H350   1.081       .  S
O326        C349   1.269       .  A
O327       Mg341   2.160       .  S
O328       Mg358   2.279       .  S
C329        O342   1.273       .  A
C329        O334   1.276       .  A
C329       C1069   1.489       .  S
C330        O357   1.275       .  A
C330       C1054   1.493       .  S
Mg331       O338   2.141       .  S
Mg331       O339   2.139       .  S
Mg331       O332   2.317       .  S
Mg331       O333   2.322       .  S
Mg331       O360   2.260       .  S
O333        C337   1.275       .  A
O334       Mg341   2.320       .  S
O335        C354   1.272       .  A
O336        C356   1.278       .  A
O336       Mg352   2.333       .  S
O338       Mg352   2.164       .  S
O338        C349   1.235       .  S
O339       Mg358   2.166       .  S
O340       Mg352   2.312       .  S
Mg341       O357   2.293       .  S
O342       Mg358   2.263       .  S
H343        C348   1.081       .  S
O344       Mg352   2.136       .  S
O344        C347   1.237       .  S
H345        C347   1.081       .  S
H346        C349   1.081       .  S
O351       Mg358   2.286       .  S
C354        O359   1.270       .  A
C354       C1013   1.483       .  S
O355        C356   1.273       .  A
C356       C1097   1.499       .  S
C361       C1349   1.489       .  S
C361        C362   1.419       .  A
C361        C366   1.404       .  A
C362       C1250   1.500       .  S
C362        C363   1.412       .  A
C363        H368   1.084       .  S
C363        C364   1.411       .  A
C364        C970   1.492       .  S
C364        C365   1.415       .  A
C365       C1082   1.491       .  S
C365        C366   1.402       .  A
C366        H367   1.085       .  S
C369       C1209   1.490       .  S
C369        C370   1.417       .  A
C369        C374   1.409       .  A
C370       C1433   1.495       .  S
C370        C371   1.409       .  A
C371        H376   1.084       .  S
C371        C372   1.410       .  A
C372       C1041   1.490       .  S
C372        C373   1.418       .  A
C373        C929   1.500       .  S
C373        C374   1.409       .  A
C374        H375   1.083       .  S
O377       Mg379   2.156       .  S
O377       Mg385   2.152       .  S
O377        C412   1.234       .  S
C378        O391   1.234       .  S
C378        O415   1.267       .  A
C378        H417   1.081       .  S
Mg379       O408   2.170       .  S
Mg379       O423   2.264       .  S
Mg379       O419   2.246       .  S
Mg379       O390   2.284       .  S
O380       Mg422   2.159       .  S
O380       Mg405   2.172       .  S
O380        C401   1.238       .  S
O381        C412   1.269       .  A
O381       Mg405   2.302       .  S
C382        O384   1.279       .  A
C382        O396   1.276       .  A
C382        C873   1.497       .  S
O383        C411   1.273       .  A
O383       Mg385   2.307       .  S
O384       Mg416   2.310       .  S
Mg385       O391   2.128       .  S
Mg385       O399   2.262       .  S
Mg385       O387   2.298       .  S
C386        O424   1.269       .  A
C386        O392   1.271       .  A
C386        C789   1.489   1_545  S
O387        C394   1.275       .  A
H388        C401   1.081       .  S
C389        O403   1.233       .  S
C389        O404   1.268       .  A
C389        H414   1.081       .  S
O390        C413   1.267       .  A
O391       Mg405   2.161       .  S
O392       Mg422   2.272       .  S
C393        O406   1.269       .  A
C393        O398   1.280       .  A
C393        C845   1.484       .  S
C394        O421   1.280       .  A
C394        C957   1.502       .  S
Mg395       O402   2.132       .  S
Mg395       O403   2.151       .  S
Mg395       O396   2.310       .  S
Mg395       O397   2.314       .  S
Mg395       O424   2.261       .  S
O397        C401   1.274       .  A
O398       Mg405   2.354       .  S
O399        C418   1.270       .  A
O400        C420   1.279       .  A
O400       Mg416   2.339       .  S
O402       Mg416   2.167       .  S
O402        C413   1.234       .  S
O403       Mg422   2.154       .  S
O404       Mg416   2.301       .  S
Mg405       O421   2.318       .  S
O406       Mg422   2.228       .  S
H407        C412   1.081       .  S
O408       Mg416   2.162       .  S
O408        C411   1.238       .  S
H409        C411   1.081       .  S
H410        C413   1.081       .  S
O415       Mg422   2.286       .  S
C418        O423   1.268       .  A
C418        C817   1.484       .  S
O419        C420   1.270       .  A
C420        C901   1.486       .  S
O425       Mg427   2.161       .  S
O425       Mg433   2.138       .  S
O425        C460   1.236       .  S
C426        O439   1.233       .  S
C426        O463   1.267       .  A
C426        H465   1.081       .  S
Mg427       O456   2.172       .  S
Mg427       O471   2.306       .  S
Mg427       O467   2.264       .  S
Mg427       O438   2.288       .  S
O428       Mg470   2.176       .  S
O428       Mg453   2.183       .  S
O428        C449   1.238       .  S
O429        C460   1.273       .  A
O429       Mg453   2.320       .  S
C430        O432   1.278       .  A
C430        O444   1.274       .  A
C430        C942   1.492       .  S
O431        C459   1.274       .  A
O431       Mg433   2.304       .  S
O432       Mg464   2.314       .  S
Mg433       O439   2.139       .  S
Mg433       O447   2.249       .  S
Mg433       O435   2.285       .  S
C434        O472   1.268       .  A
C434        O440   1.275       .  A
C434        C649   1.494       .  S
O435        C442   1.271       .  A
H436        C449   1.081       .  S
C437        O451   1.236       .  S
C437        O452   1.272       .  A
C437        H462   1.081       .  S
O438        C461   1.266       .  A
O439       Mg453   2.142       .  S
O440       Mg470   2.320       .  S
C441        O454   1.273       .  A
C441        O446   1.282       .  A
C441        C761   1.490       .  S
C442        O469   1.280       .  A
C442        C733   1.501       .  S
Mg443       O450   2.132       .  S
Mg443       O451   2.150       .  S
Mg443       O444   2.301       .  S
Mg443       O445   2.310       .  S
Mg443       O472   2.238       .  S
O445        C449   1.273       .  A
O446       Mg453   2.355       .  S
O447        C466   1.268       .  A
O448        C468   1.281       .  A
O448       Mg464   2.341       .  S
O450       Mg464   2.153       .  S
O450        C461   1.233       .  S
O451       Mg470   2.167       .  S
O452       Mg464   2.311       .  S
Mg453       O469   2.346       .  S
O454       Mg470   2.252       .  S
H455        C460   1.081       .  S
O456       Mg464   2.164       .  S
O456        C459   1.239       .  S
H457        C459   1.081       .  S
H458        C461   1.081       .  S
O463       Mg470   2.295       .  S
C466        O471   1.273       .  A
C466        C677   1.493       .  S
O467        C468   1.273       .  A
C468        C705   1.496       .  S
C473       C1461   1.493       .  S
C473        C474   1.415       .  A
C473        C478   1.403       .  A
C474       C1334   1.490       .  S
C474        C475   1.408       .  A
C475        H480   1.084       .  S
C475        C476   1.410       .  A
C476        C718   1.498       .  S
C476        C477   1.419       .  A
C477        C858   1.489       .  S
C477        C478   1.406       .  A
C478        H479   1.084       .  S
C481       C1754   1.492       .  S
C481        C482   1.419       .  A
C481        C486   1.408       .  A
C482       C2049   1.493       .  S
C482        C483   1.406       .  A
C483        H488   1.085   1_455  S
C483        C484   1.406   1_455  A
C484        C914   1.487       .  S
C484        C485   1.417       .  A
C485        C774   1.496       .  S
C485        C486   1.407   1_655  A
C486        H487   1.084       .  S
C489       C2090   1.493       .  S
C489        C490   1.415       .  A
C489        C494   1.404       .  A
C490       C1642   1.493       .  S
C490        C491   1.410       .  A
C491        H496   1.084       .  S
C491        C492   1.412       .  A
C492        C746   1.500       .  S
C492        C493   1.420       .  A
C493       C1125   1.491       .  S
C493        C494   1.407       .  A
C494        H495   1.084       .  S
C497       C1769   1.500       .  S
C497        C498   1.421       .  A
C497        C502   1.410       .  A
C498       C1601   1.500       .  S
C498        C499   1.411       .  A
C499        H504   1.084   1_565  S
C499        C500   1.411   1_565  A
C500        C886   1.498       .  S
C500        C501   1.419       .  A
C501       C1110   1.495       .  S
C501        C502   1.408   1_545  A
C502        H503   1.084       .  S
O505       Mg507   2.170   1_545  S
O505       Mg513   2.157       .  S
O505        C540   1.237       .  S
C506        O519   1.234       .  S
C506        O543   1.267       .  A
C506        H545   1.081       .  S
Mg507       O536   2.161   1_556  S
Mg507       O551   2.325       .  S
Mg507       O547   2.295       .  S
Mg507       O518   2.299       .  S
O508       Mg550   2.164   1_556  S
O508       Mg533   2.133       .  S
O508        C529   1.235       .  S
O509        C540   1.272   1_455  A
O509       Mg533   2.309       .  S
C510        O512   1.270       .  A
C510        O524   1.274   1_655  A
C510       C1194   1.495   1_655  S
O511        C539   1.269       .  A
O511       Mg513   2.293   1_564  S
O512       Mg544   2.266       .  S
Mg513       O519   2.121   1_656  S
Mg513       O527   2.199       .  S
Mg513       O515   2.295       .  S
C514        O552   1.268   1_544  A
C514        O520   1.274       .  A
C514       C1418   1.467       .  S
O515        C522   1.273   1_655  A
H516        C529   1.081       .  S
C517        O531   1.236       .  S
C517        O532   1.271   1_455  A
C517        H542   1.081       .  S
O518        C541   1.268       .  A
O519       Mg533   2.141   1_554  S
O520       Mg550   2.306       .  S
C521        O534   1.277       .  A
C521        O526   1.274       .  A
C521       C1265   1.496       .  S
C522        O549   1.272       .  A
C522       C1153   1.495   1_455  S
Mg523       O530   2.137   1_455  S
Mg523       O531   2.155   1_556  S
Mg523       O524   2.300   1_556  S
Mg523       O525   2.293   1_565  S
Mg523       O552   2.225       .  S
O525        C529   1.269       .  A
O526       Mg533   2.294   1_554  S
O527        C546   1.265   1_545  A
O528        C548   1.275       .  A
O528       Mg544   2.299   1_556  S
O530       Mg544   2.147   1_556  S
O530        C541   1.234       .  S
O531       Mg550   2.169   1_565  S
O532       Mg544   2.306       .  S
Mg533       O549   2.275       .  S
O534       Mg550   2.294       .  S
H535        C540   1.081       .  S
O536       Mg544   2.137       .  S
O536        C539   1.236       .  S
H537        C539   1.081       .  S
H538        C541   1.081       .  S
O543       Mg550   2.288       .  S
C546        O551   1.277       .  A
C546       C1390   1.474   1_565  S
O547        C548   1.276       .  A
C548       C1306   1.493       .  S
O553       Mg555   2.146       .  S
O553       Mg561   2.167       .  S
O553        C588   1.236       .  S
C554        O567   1.236       .  S
C554        O591   1.270       .  A
C554        H593   1.081       .  S
Mg555       O584   2.146       .  S
Mg555       O599   2.314       .  S
Mg555       O595   2.301       .  S
Mg555       O566   2.307       .  S
O556       Mg598   2.147       .  S
O556       Mg581   2.112       .  S
O556        C577   1.233       .  S
O557        C588   1.270       .  A
O557       Mg581   2.294       .  S
C558        O560   1.266       .  A
C558        O572   1.275       .  A
C558       C2006   1.478       .  S
O559        C587   1.267       .  A
O559       Mg561   2.289       .  S
O560       Mg592   2.203       .  S
Mg561       O567   2.156       .  S
Mg561       O575   2.259       .  S
Mg561       O563   2.308       .  S
C562        O600   1.275       .  A
C562        O568   1.276       .  A
C562       C1573   1.489       .  S
O563        C570   1.274       .  A
H564        C577   1.081       .  S
C565        O579   1.236       .  S
C565        O580   1.270       .  A
C565        H590   1.081       .  S
O566        C589   1.271       .  A
O567       Mg581   2.153       .  S
O568       Mg598   2.293       .  S
C569        O582   1.274       .  A
C569        O574   1.274       .  A
C569       C1713   1.501       .  S
C570        O597   1.265       .  A
C570       C2021   1.469       .  S
Mg571       O578   2.165       .  S
Mg571       O579   2.167       .  S
Mg571       O572   2.312       .  S
Mg571       O573   2.288       .  S
Mg571       O600   2.283       .  S
O573        C577   1.267       .  A
O574       Mg581   2.294       .  S
O575        C594   1.273       .  A
O576        C596   1.273       .  A
O576       Mg592   2.301       .  S
O578       Mg592   2.154       .  S
O578        C589   1.236       .  S
O579       Mg598   2.144       .  S
O580       Mg592   2.295       .  S
Mg581       O597   2.197       .  S
O582       Mg598   2.293       .  S
H583        C588   1.081       .  S
O584       Mg592   2.121       .  S
O584        C587   1.234       .  S
H585        C587   1.081       .  S
H586        C589   1.081       .  S
O591       Mg598   2.301       .  S
C594        O599   1.278       .  A
C594       C1545   1.488       .  S
O595        C596   1.276       .  A
C596       C1685   1.498       .  S
O601       Mg603   2.127       .  S
O601       Mg609   2.155       .  S
O601        C636   1.234       .  S
C602        O615   1.236       .  S
C602        O639   1.270       .  A
C602        H641   1.081       .  S
Mg603       O632   2.143       .  S
Mg603       O647   2.280       .  S
Mg603       O643   2.234       .  S
Mg603       O614   2.303       .  S
O604       Mg646   2.147       .  S
O604       Mg629   2.140       .  S
O604        C625   1.234       .  S
O605        C636   1.267       .  A
O605       Mg629   2.289       .  S
C606        O608   1.268       .  A
C606        O620   1.276       .  A
C606        C985   1.476       .  S
O607        C635   1.269       .  A
O607       Mg609   2.302       .  S
O608       Mg640   2.224       .  S
Mg609       O615   2.155       .  S
Mg609       O623   2.300       .  S
Mg609       O611   2.322       .  S
C610        O648   1.276       .  A
C610        O616   1.272       .  A
C610        C690   1.487       .  S
O611        C618   1.278       .  A
H612        C625   1.081       .  S
C613        O627   1.233       .  S
C613        O628   1.267       .  A
C613        H638   1.081       .  S
O614        C637   1.271       .  A
O615       Mg629   2.162       .  S
O616       Mg646   2.283       .  S
C617        O630   1.267       .  A
C617        O622   1.274       .  A
C617        C802   1.487       .  S
C618        O645   1.269       .  A
C618       C1026   1.481       .  S
Mg619       O626   2.161       .  S
Mg619       O627   2.153       .  S
Mg619       O620   2.302       .  S
Mg619       O621   2.300       .  S
Mg619       O648   2.300       .  S
O621        C625   1.269       .  A
O622       Mg629   2.296       .  S
O623        C642   1.276       .  A
O624        C644   1.273       .  A
O624       Mg640   2.307       .  S
O626       Mg640   2.167       .  S
O626        C637   1.237       .  S
O627       Mg646   2.126       .  S
O628       Mg640   2.292       .  S
Mg629       O645   2.229       .  S
O630       Mg646   2.237       .  S
H631        C636   1.081       .  S
O632       Mg640   2.140       .  S
O632        C635   1.235       .  S
H633        C635   1.081       .  S
H634        C637   1.081       .  S
O639       Mg646   2.299       .  S
C642        O647   1.272       .  A
C642        C662   1.492       .  S
O643        C644   1.267       .  A
C644        C830   1.485       .  S
C649        C650   1.414       .  A
C649        C654   1.412   1_655  A
C650        C651   1.406   1_655  A
C650        N655   1.433       .  S
C651        H656   1.084       .  S
C651        C652   1.404       .  A
C652        C657   1.484       .  S
C652        C653   1.406       .  A
C653        C654   1.406       .  A
C653        N658   1.438       .  S
C654        H659   1.083   1_455  S
N655        H675   1.046       .  S
N655        H676   1.046       .  S
C657        C660   1.403       .  A
C657        C664   1.406       .  A
N658        H673   1.046       .  S
N658        H674   1.046       .  S
C660        H665   1.084       .  S
C660        C661   1.409       .  A
C661        C662   1.415       .  A
C661        N666   1.437       .  S
C662        C663   1.410       .  A
C663        H667   1.083       .  S
C663        C664   1.405       .  A
C664        N668   1.438       .  S
N666        H669   1.046       .  S
N666        H670   1.045       .  S
N668        H671   1.045       .  S
N668        H672   1.046       .  S
C677        C678   1.416       .  A
C677        C682   1.410       .  A
C678        C679   1.404       .  A
C678        N683   1.432       .  S
C679        H684   1.084       .  S
C679        C680   1.400       .  A
C680        C685   1.481       .  S
C680        C681   1.406       .  A
C681        C682   1.408       .  A
C681        N686   1.438       .  S
C682        H687   1.081       .  S
N683        H703   1.046       .  S
N683        H704   1.046       .  S
C685        C688   1.399       .  A
C685        C692   1.410       .  A
N686        H701   1.046       .  S
N686        H702   1.045       .  S
C688        H693   1.084       .  S
C688        C689   1.406       .  A
C689        C690   1.417       .  A
C689        N694   1.438       .  S
C690        C691   1.406       .  A
C691        H695   1.084       .  S
C691        C692   1.409       .  A
C692        N696   1.438       .  S
N694        H697   1.046       .  S
N694        H698   1.046       .  S
N696        H699   1.046       .  S
N696        H700   1.045       .  S
C705        C706   1.416       .  A
C705        C710   1.408       .  A
C706        C707   1.406       .  A
C706        N711   1.432       .  S
C707        H712   1.084       .  S
C707        C708   1.403       .  A
C708        C713   1.493       .  S
C708        C709   1.412       .  A
C709        C710   1.411       .  A
C709        N714   1.437       .  S
C710        H715   1.083       .  S
N711        H731   1.046       .  S
N711        H732   1.045       .  S
C713        C716   1.402       .  A
C713        C720   1.420       .  A
N714        H729   1.045       .  S
N714        H730   1.046       .  S
C716        H721   1.084       .  S
C716        C717   1.404       .  A
C717        C718   1.422       .  A
C717        N722   1.440       .  S
C718        C719   1.406       .  A
C719        H723   1.084       .  S
C719        C720   1.406       .  A
C720        N724   1.439       .  S
N722        H725   1.045       .  S
N722        H726   1.043       .  S
N724        H727   1.046       .  S
N724        H728   1.043       .  S
C733        C734   1.423       .  A
C733        C738   1.408       .  A
C734        C735   1.404       .  A
C734        N739   1.439       .  S
C735        H740   1.084       .  S
C735        C736   1.397       .  A
C736        C741   1.494       .  S
C736        C737   1.413       .  A
C737        C738   1.418       .  A
C737        N742   1.437       .  S
C738        H743   1.083       .  S
N739        H759   1.046       .  S
N739        H760   1.045       .  S
C741        C744   1.404       .  A
C741        C748   1.420       .  A
N742        H757   1.046       .  S
N742        H758   1.046       .  S
C744        H749   1.084       .  S
C744        C745   1.408       .  A
C745        C746   1.411       .  A
C745        N750   1.432       .  S
C746        C747   1.405       .  A
C747        H751   1.084       .  S
C747        C748   1.405       .  A
C748        N752   1.439       .  S
N750        H753   1.046       .  S
N750        H754   1.046       .  S
N752        H755   1.046       .  S
N752        H756   1.043       .  S
C761        C762   1.410       .  A
C761        C766   1.408       .  A
C762        C763   1.410       .  A
C762        N767   1.432       .  S
C763        H768   1.084       .  S
C763        C764   1.408       .  A
C764        C769   1.495       .  S
C764        C765   1.411       .  A
C765        C766   1.406       .  A
C765        N770   1.438       .  S
C766        H771   1.084       .  S
N767        H787   1.046       .  S
N767        H788   1.046       .  S
C769        C772   1.405       .  A
C769        C776   1.420       .  A
N770        H785   1.046       .  S
N770        H786   1.045       .  S
C772        H777   1.084       .  S
C772        C773   1.399       .  A
C773        C774   1.417       .  A
C773        N778   1.434   1_655  S
C774        C775   1.406       .  A
C775        H779   1.083       .  S
C775        C776   1.407       .  A
C776        N780   1.439       .  S
N778        H781   1.043       .  S
N778        H782   1.045       .  S
N780        H783   1.046       .  S
N780        H784   1.042       .  S
C789        C790   1.417       .  A
C789        C794   1.410       .  A
C790        C791   1.405       .  A
C790        N795   1.438       .  S
C791        H796   1.084       .  S
C791        C792   1.401       .  A
C792        C797   1.476       .  S
C792        C793   1.404       .  A
C793        C794   1.401       .  A
C793        N798   1.438       .  S
C794        H799   1.081       .  S
N795        H815   1.046       .  S
N795        H816   1.046       .  S
C797        C800   1.398       .  A
C797        C804   1.408       .  A
N798        H813   1.046       .  S
N798        H814   1.046       .  S
C800        H805   1.084       .  S
C800        C801   1.401       .  A
C801        C802   1.417       .  A
C801        N806   1.433       .  S
C802        C803   1.408       .  A
C803        H807   1.083       .  S
C803        C804   1.403       .  A
C804        N808   1.438       .  S
N806        H809   1.046       .  S
N806        H810   1.046       .  S
N808        H811   1.046       .  S
N808        H812   1.046       .  S
C817        C818   1.418       .  A
C817        C822   1.407       .  A
C818        C819   1.403   1_655  A
C818        N823   1.438       .  S
C819        H824   1.084       .  S
C819        C820   1.398       .  A
C820        C825   1.474       .  S
C820        C821   1.408       .  A
C821        C822   1.404   1_455  A
C821        N826   1.439       .  S
C822        H827   1.083       .  S
N823        H843   1.045       .  S
N823        H844   1.046       .  S
C825        C828   1.395       .  A
C825        C832   1.410       .  A
N826        H841   1.046       .  S
N826        H842   1.044       .  S
C828        H833   1.084       .  S
C828        C829   1.398       .  A
C829        C830   1.416       .  A
C829        N834   1.432       .  S
C830        C831   1.407       .  A
C831        H835   1.084       .  S
C831        C832   1.408       .  A
C832        N836   1.438       .  S
N834        H837   1.045       .  S
N834        H838   1.046       .  S
N836        H839   1.046       .  S
N836        H840   1.044       .  S
C845        C846   1.416       .  A
C845        C850   1.405       .  A
C846        C847   1.399   1_545  A
C846        N851   1.438   1_545  S
C847        H852   1.084       .  S
C847        C848   1.397       .  A
C848        C853   1.486       .  S
C848        C849   1.414   1_565  A
C849        C850   1.415       .  A
C849        N854   1.437       .  S
C850        H855   1.083       .  S
N851        H871   1.046   1_565  S
N851        H872   1.046       .  S
C853        C856   1.405       .  A
C853        C860   1.418       .  A
N854        H869   1.046       .  S
N854        H870   1.046       .  S
C856        H861   1.084       .  S
C856        C857   1.411       .  A
C857        C858   1.412       .  A
C857        N862   1.437       .  S
C858        C859   1.403       .  A
C859        H863   1.084       .  S
C859        C860   1.399       .  A
C860        N864   1.440       .  S
N862        H865   1.045       .  S
N862        H866   1.046       .  S
N864        H867   1.046       .  S
N864        H868   1.043       .  S
C873        C874   1.419       .  A
C873        C878   1.406       .  A
C874        C875   1.411       .  A
C874        N879   1.438       .  S
C875        H880   1.084       .  S
C875        C876   1.405       .  A
C876        C881   1.502       .  S
C876        C877   1.415       .  A
C877        C878   1.411       .  A
C877        N882   1.438       .  S
C878        H883   1.083       .  S
N879        H899   1.045       .  S
N879        H900   1.046       .  S
C881        C884   1.406       .  A
C881        C888   1.414       .  A
N882        H897   1.046       .  S
N882        H898   1.046       .  S
C884        H889   1.084       .  S
C884        C885   1.407       .  A
C885        C886   1.420       .  A
C885        N890   1.437       .  S
C886        C887   1.406       .  A
C887        H891   1.084   1_545  S
C887        C888   1.409       .  A
C888        N892   1.438       .  S
N890        H893   1.045       .  S
N890        H894   1.043       .  S
N892        H895   1.046   1_545  S
N892        H896   1.046       .  S
C901        C902   1.415       .  A
C901        C906   1.404       .  A
C902        C903   1.411       .  A
C902        N907   1.438       .  S
C903        H908   1.084       .  S
C903        C904   1.404       .  A
C904        C909   1.490       .  S
C904        C905   1.410       .  A
C905        C906   1.406       .  A
C905        N910   1.438       .  S
C906        H911   1.084       .  S
N907        H927   1.046       .  S
N907        H928   1.046       .  S
C909        C912   1.406       .  A
C909        C916   1.419       .  A
N910        H925   1.046       .  S
N910        H926   1.045       .  S
C912        H917   1.084       .  S
C912        C913   1.404       .  A
C913        C914   1.404       .  A
C913        N918   1.431   1_655  S
C914        C915   1.404       .  A
C915        H919   1.084       .  S
C915        C916   1.405       .  A
C916        N920   1.439       .  S
N918        H921   1.045       .  S
N918        H922   1.046       .  S
N920        H923   1.046       .  S
N920        H924   1.042       .  S
C929        C930   1.417       .  A
C929        C934   1.407       .  A
C930        C931   1.401       .  A
C930        N935   1.433       .  S
C931        H936   1.084       .  S
C931        C932   1.404       .  A
C932        C937   1.497       .  S
C932        C933   1.420       .  A
C933        C934   1.409       .  A
C933        N938   1.439       .  S
C934        H939   1.084       .  S
N935        H955   1.045       .  S
N935        H956   1.043       .  S
C937        C940   1.406   1_455  A
C937        C944   1.412       .  A
N938        H953   1.046       .  S
N938        H954   1.042       .  S
C940        H945   1.084       .  S
C940        C941   1.412       .  A
C941        C942   1.414       .  A
C941        N946   1.438       .  S
C942        C943   1.407       .  A
C943        H947   1.084       .  S
C943        C944   1.409   1_655  A
C944        N948   1.438       .  S
N946        H949   1.046       .  S
N946        H950   1.046       .  S
N948        H951   1.045       .  S
N948        H952   1.046       .  S
C957        C958   1.423       .  A
C957        C962   1.408       .  A
C958        C959   1.406   1_655  A
C958        N963   1.439       .  S
C959        H964   1.084       .  S
C959        C960   1.401       .  A
C960        C965   1.499       .  S
C960        C961   1.414       .  A
C961        C962   1.414   1_455  A
C961        N966   1.437       .  S
C962        H967   1.083       .  S
N963        H983   1.045       .  S
N963        H984   1.046   1_655  S
C965        C968   1.406       .  A
C965        C972   1.416       .  A
N966        H981   1.045   1_455  S
N966        H982   1.046       .  S
C968        H973   1.083       .  S
C968        C969   1.402       .  A
C969        C970   1.414       .  A
C969        N974   1.433       .  S
C970        C971   1.404       .  A
C971        H975   1.084       .  S
C971        C972   1.409       .  A
C972        N976   1.438       .  S
N974        H977   1.044       .  S
N974        H978   1.045       .  S
N976        H979   1.046       .  S
N976        H980   1.045       .  S
C985        C986   1.418       .  A
C985        C990   1.404       .  A
C986        C987   1.401       .  A
C986        N991   1.439       .  S
C987        H992   1.084       .  S
C987        C988   1.398       .  A
C988        C993   1.473       .  S
C988        C989   1.408       .  A
C989        C990   1.402       .  A
C989        N994   1.438       .  S
C990        H995   1.084       .  S
N991       H1011   1.046       .  S
N991       H1012   1.046       .  S
C993        C996   1.399       .  A
C993       C1000   1.405       .  A
N994       H1009   1.046       .  S
N994       H1010   1.046       .  S
C996       H1001   1.084       .  S
C996        C997   1.404       .  A
C997        C998   1.418       .  A
C997       N1002   1.438       .  S
C998        C999   1.410       .  A
C999       H1003   1.083       .  S
C999       C1000   1.401       .  A
C1000      N1004   1.439       .  S
N1002      H1005   1.046       .  S
N1002      H1006   1.045       .  S
N1004      H1007   1.046       .  S
N1004      H1008   1.046       .  S
C1013      C1014   1.418       .  A
C1013      C1018   1.407       .  A
C1014      C1015   1.401   1_545  A
C1014      N1019   1.439       .  S
C1015      H1020   1.084       .  S
C1015      C1016   1.397       .  A
C1016      C1021   1.471       .  S
C1016      C1017   1.407       .  A
C1017      C1018   1.403   1_565  A
C1017      N1022   1.438       .  S
C1018      H1023   1.083       .  S
N1019      H1039   1.046       .  S
N1019      H1040   1.046       .  S
C1021      C1024   1.395       .  A
C1021      C1028   1.410       .  A
N1022      H1037   1.046       .  S
N1022      H1038   1.044       .  S
C1024      H1029   1.084       .  S
C1024      C1025   1.401       .  A
C1025      C1026   1.419       .  A
C1025      N1030   1.439       .  S
C1026      C1027   1.405       .  A
C1027      H1031   1.084       .  S
C1027      C1028   1.405       .  A
C1028      N1032   1.439       .  S
N1030      H1033   1.046       .  S
N1030      H1034   1.046       .  S
N1032      H1035   1.046       .  S
N1032      H1036   1.044       .  S
C1041      C1042   1.409       .  A
C1041      C1046   1.403       .  A
C1042      C1043   1.408       .  A
C1042      N1047   1.437       .  S
C1043      H1048   1.084       .  S
C1043      C1044   1.405       .  A
C1044      C1049   1.490       .  S
C1044      C1045   1.419       .  A
C1045      C1046   1.406       .  A
C1045      N1050   1.439       .  S
C1046      H1051   1.084       .  S
N1047      H1067   1.046       .  S
N1047      H1068   1.045       .  S
C1049      C1052   1.405       .  A
C1049      C1056   1.408   1_565  A
N1050      H1065   1.045   1_565  S
N1050      H1066   1.043   1_565  S
C1052      H1057   1.084       .  S
C1052      C1053   1.407   1_565  A
C1053      C1054   1.419       .  A
C1053      N1058   1.432       .  S
C1054      C1055   1.408       .  A
C1055      H1059   1.084       .  S
C1055      C1056   1.405       .  A
C1056      N1060   1.438   1_545  S
N1058      H1061   1.045       .  S
N1058      H1062   1.046       .  S
N1060      H1063   1.048   1_565  S
N1060      H1064   1.044   1_565  S
C1069      C1070   1.417       .  A
C1069      C1074   1.407       .  A
C1070      C1071   1.412       .  A
C1070      N1075   1.438       .  S
C1071      H1076   1.084       .  S
C1071      C1072   1.405       .  A
C1072      C1077   1.488       .  S
C1072      C1073   1.408       .  A
C1073      C1074   1.404       .  A
C1073      N1078   1.438       .  S
C1074      H1079   1.084       .  S
N1075      H1095   1.045       .  S
N1075      H1096   1.046       .  S
C1077      C1080   1.403       .  A
C1077      C1084   1.420       .  A
N1078      H1093   1.046       .  S
N1078      H1094   1.046       .  S
C1080      H1085   1.084       .  S
C1080      C1081   1.400       .  A
C1081      C1082   1.409       .  A
C1081      N1086   1.433       .  S
C1082      C1083   1.404       .  A
C1083      H1087   1.083       .  S
C1083      C1084   1.407       .  A
C1084      N1088   1.438       .  S
N1086      H1089   1.046       .  S
N1086      H1090   1.046       .  S
N1088      H1091   1.046       .  S
N1088      H1092   1.042       .  S
C1097      C1098   1.419       .  A
C1097      C1102   1.408       .  A
C1098      C1099   1.413       .  A
C1098      N1103   1.438       .  S
C1099      H1104   1.084       .  S
C1099      C1100   1.406       .  A
C1100      C1105   1.500       .  S
C1100      C1101   1.411       .  A
C1101      C1102   1.408       .  A
C1101      N1106   1.438       .  S
C1102      H1107   1.083       .  S
N1103      H1123   1.045       .  S
N1103      H1124   1.046       .  S
C1105      C1108   1.409       .  A
C1105      C1112   1.422       .  A
N1106      H1121   1.046   1_545  S
N1106      H1122   1.045       .  S
C1108      H1113   1.084       .  S
C1108      C1109   1.408       .  A
C1109      C1110   1.407       .  A
C1109      N1114   1.431   1_545  S
C1110      C1111   1.405       .  A
C1111      H1115   1.084       .  S
C1111      C1112   1.406       .  A
C1112      N1116   1.440       .  S
N1114      H1117   1.045       .  S
N1114      H1118   1.046       .  S
N1116      H1119   1.046       .  S
N1116      H1120   1.042       .  S
C1125      C1126   1.407       .  A
C1125      C1130   1.405       .  A
C1126      C1127   1.400       .  A
C1126      N1131   1.432       .  S
C1127      H1132   1.084       .  S
C1127      C1128   1.405       .  A
C1128      C1133   1.490       .  S
C1128      C1129   1.421       .  A
C1129      C1130   1.407       .  A
C1129      N1134   1.439       .  S
C1130      H1135   1.084       .  S
N1131      H1151   1.045       .  S
N1131      H1152   1.046       .  S
C1133      C1136   1.405       .  A
C1133      C1140   1.411       .  A
N1134      H1149   1.046       .  S
N1134      H1150   1.042       .  S
C1136      H1141   1.084       .  S
C1136      C1137   1.409       .  A
C1137      C1138   1.416       .  A
C1137      N1142   1.438       .  S
C1138      C1139   1.404       .  A
C1139      H1143   1.084       .  S
C1139      C1140   1.404       .  A
C1140      N1144   1.438       .  S
N1142      H1145   1.046       .  S
N1142      H1146   1.045       .  S
N1144      H1147   1.046       .  S
N1144      H1148   1.045       .  S
C1153      C1154   1.417   1_655  A
C1153      C1158   1.411       .  A
C1154      C1155   1.409       .  A
C1154      N1159   1.437       .  S
C1155      H1160   1.084       .  S
C1155      C1156   1.402   1_455  A
C1156      C1161   1.481       .  S
C1156      C1157   1.405       .  A
C1157      C1158   1.405       .  A
C1157      N1162   1.438       .  S
C1158      H1163   1.082       .  S
N1159      H1179   1.046       .  S
N1159      H1180   1.046       .  S
C1161      C1164   1.402       .  A
C1161      C1168   1.408       .  A
N1162      H1177   1.046       .  S
N1162      H1178   1.046       .  S
C1164      H1169   1.084       .  S
C1164      C1165   1.409       .  A
C1165      C1166   1.414       .  A
C1165      N1170   1.437       .  S
C1166      C1167   1.404       .  A
C1167      H1171   1.084   1_656  S
C1167      C1168   1.403       .  A
C1168      N1172   1.438   1_656  S
N1170      H1173   1.046       .  S
N1170      H1174   1.046       .  S
N1172      H1175   1.046       .  S
N1172      H1176   1.046   1_455  S
C1181      C1182   1.412       .  A
C1181      C1186   1.408       .  A
C1182      C1183   1.404       .  A
C1182      N1187   1.433   1_554  S
C1183      H1188   1.084   1_554  S
C1183      C1184   1.404       .  A
C1184      C1189   1.484       .  S
C1184      C1185   1.409   1_455  A
C1185      C1186   1.404   1_655  A
C1185      N1190   1.438       .  S
C1186      H1191   1.083   1_455  S
N1187      H1207   1.046       .  S
N1187      H1208   1.046       .  S
C1189      C1192   1.402   1_455  A
C1189      C1196   1.406       .  A
N1190      H1205   1.046       .  S
N1190      H1206   1.045       .  S
C1192      H1197   1.084       .  S
C1192      C1193   1.407       .  A
C1193      C1194   1.419   1_655  A
C1193      N1198   1.438       .  S
C1194      C1195   1.410       .  A
C1195      H1199   1.082       .  S
C1195      C1196   1.405       .  A
C1196      N1200   1.438       .  S
N1198      H1201   1.046       .  S
N1198      H1202   1.045       .  S
N1200      H1203   1.046       .  S
N1200      H1204   1.045       .  S
C1209      C1210   1.412       .  A
C1209      C1214   1.402       .  A
C1210      C1211   1.410       .  A
C1210      N1215   1.438       .  S
C1211      H1216   1.084       .  S
C1211      C1212   1.405       .  A
C1212      C1217   1.495       .  S
C1212      C1213   1.418       .  A
C1213      C1214   1.404       .  A
C1213      N1218   1.433       .  S
C1214      H1219   1.083       .  S
N1215      H1235   1.045       .  S
N1215      H1236   1.045       .  S
C1217      C1220   1.404       .  A
C1217      C1224   1.411       .  A
N1218      H1233   1.042       .  S
N1218      H1234   1.046       .  S
C1220      H1225   1.084       .  S
C1220      C1221   1.411       .  A
C1221      C1222   1.415       .  A
C1221      N1226   1.438       .  S
C1222      C1223   1.405       .  A
C1223      H1227   1.084       .  S
C1223      C1224   1.408       .  A
C1224      N1228   1.433       .  S
N1226      H1229   1.046       .  S
N1226      H1230   1.045       .  S
N1228      H1231   1.045       .  S
N1228      H1232   1.046       .  S
C1237      C1238   1.412       .  A
C1237      C1242   1.406       .  A
C1238      C1239   1.410       .  A
C1238      N1243   1.438       .  S
C1239      H1244   1.084       .  S
C1239      C1240   1.404       .  A
C1240      C1245   1.490       .  S
C1240      C1241   1.411       .  A
C1241      C1242   1.409       .  A
C1241      N1246   1.438       .  S
C1242      H1247   1.084       .  S
N1243      H1263   1.046       .  S
N1243      H1264   1.046       .  S
C1245      C1248   1.402       .  A
C1245      C1252   1.419       .  A
N1246      H1261   1.046       .  S
N1246      H1262   1.044       .  S
C1248      H1253   1.084       .  S
C1248      C1249   1.410       .  A
C1249      C1250   1.415       .  A
C1249      N1254   1.436       .  S
C1250      C1251   1.405       .  A
C1251      H1255   1.084       .  S
C1251      C1252   1.405       .  A
C1252      N1256   1.439       .  S
N1254      H1257   1.045       .  S
N1254      H1258   1.045       .  S
N1256      H1259   1.045       .  S
N1256      H1260   1.043       .  S
C1265      C1266   1.421       .  A
C1265      C1270   1.408       .  A
C1266      C1267   1.407       .  A
C1266      N1271   1.438       .  S
C1267      H1272   1.084       .  S
C1267      C1268   1.400       .  A
C1268      C1273   1.487       .  S
C1268      C1269   1.410       .  A
C1269      C1270   1.408       .  A
C1269      N1274   1.438       .  S
C1270      H1275   1.083       .  S
N1271      H1291   1.046       .  S
N1271      H1292   1.046       .  S
C1273      C1276   1.402       .  A
C1273      C1280   1.409       .  A
N1274      H1289   1.046       .  S
N1274      H1290   1.046       .  S
C1276      H1281   1.084       .  S
C1276      C1277   1.410       .  A
C1277      C1278   1.418       .  A
C1277      N1282   1.437       .  S
C1278      C1279   1.409       .  A
C1279      H1283   1.083   1_554  S
C1279      C1280   1.406       .  A
C1280      N1284   1.438   1_554  S
N1282      H1285   1.046       .  S
N1282      H1286   1.046       .  S
N1284      H1287   1.046       .  S
N1284      H1288   1.046       .  S
C1293      C1294   1.419       .  A
C1293      C1298   1.408       .  A
C1294      C1295   1.408       .  A
C1294      N1299   1.438       .  S
C1295      H1300   1.084       .  S
C1295      C1296   1.399       .  A
C1296      C1301   1.482       .  S
C1296      C1297   1.409       .  A
C1297      C1298   1.407       .  A
C1297      N1302   1.438   1_556  S
C1298      H1303   1.083   1_556  S
N1299      H1319   1.045       .  S
N1299      H1320   1.046       .  S
C1301      C1304   1.401       .  A
C1301      C1308   1.406       .  A
N1302      H1317   1.046       .  S
N1302      H1318   1.045       .  S
C1304      H1309   1.084       .  S
C1304      C1305   1.408       .  A
C1305      C1306   1.416       .  A
C1305      N1310   1.437       .  S
C1306      C1307   1.410       .  A
C1307      H1311   1.084       .  S
C1307      C1308   1.407       .  A
C1308      N1312   1.438       .  S
N1310      H1313   1.046       .  S
N1310      H1314   1.046       .  S
N1312      H1315   1.046       .  S
N1312      H1316   1.045       .  S
C1321      C1322   1.418       .  A
C1321      C1326   1.410       .  A
C1322      C1323   1.412       .  A
C1322      N1327   1.437       .  S
C1323      H1328   1.084       .  S
C1323      C1324   1.403       .  A
C1324      C1329   1.483       .  S
C1324      C1325   1.405       .  A
C1325      C1326   1.402       .  A
C1325      N1330   1.439       .  S
C1326      H1331   1.083       .  S
N1327      H1347   1.046       .  S
N1327      H1348   1.045       .  S
C1329      C1332   1.403       .  A
C1329      C1336   1.417       .  A
N1330      H1345   1.045       .  S
N1330      H1346   1.046       .  S
C1332      H1337   1.084       .  S
C1332      C1333   1.407       .  A
C1333      C1334   1.413       .  A
C1333      N1338   1.437       .  S
C1334      C1335   1.403       .  A
C1335      H1339   1.084       .  S
C1335      C1336   1.402       .  A
C1336      N1340   1.439       .  S
N1338      H1341   1.046       .  S
N1338      H1342   1.045       .  S
N1340      H1343   1.046       .  S
N1340      H1344   1.043       .  S
C1349      C1350   1.415       .  A
C1349      C1354   1.404       .  A
C1350      C1351   1.404       .  A
C1350      N1355   1.438       .  S
C1351      H1356   1.084       .  S
C1351      C1352   1.400       .  A
C1352      C1357   1.478       .  S
C1352      C1353   1.416       .  A
C1353      C1354   1.401       .  A
C1353      N1358   1.438       .  S
C1354      H1359   1.084       .  S
N1355      H1375   1.045       .  S
N1355      H1376   1.045       .  S
C1357      C1360   1.401       .  A
C1357      C1364   1.408       .  A
N1358      H1373   1.046       .  S
N1358      H1374   1.043       .  S
C1360      H1365   1.084       .  S
C1360      C1361   1.401       .  A
C1361      C1362   1.419       .  A
C1361      N1366   1.433       .  S
C1362      C1363   1.404       .  A
C1363      H1367   1.084       .  S
C1363      C1364   1.403       .  A
C1364      N1368   1.438       .  S
N1366      H1369   1.044       .  S
N1366      H1370   1.046       .  S
N1368      H1371   1.045       .  S
N1368      H1372   1.045       .  S
C1377      C1378   1.413   1_545  A
C1377      C1382   1.402       .  A
C1378      C1379   1.398       .  A
C1378      N1383   1.433       .  S
C1379      H1384   1.084       .  S
C1379      C1380   1.400   1_565  A
C1380      C1385   1.479       .  S
C1380      C1381   1.413       .  A
C1381      C1382   1.403       .  A
C1381      N1386   1.438   1_556  S
C1382      H1387   1.084       .  S
N1383      H1403   1.046       .  S
N1383      H1404   1.046       .  S
C1385      C1388   1.398       .  A
C1385      C1392   1.414   1_545  A
N1386      H1401   1.046       .  S
N1386      H1402   1.045       .  S
C1388      H1393   1.084       .  S
C1388      C1389   1.397       .  A
C1389      C1390   1.416       .  A
C1389      N1394   1.439       .  S
C1390      C1391   1.402   1_545  A
C1391      H1395   1.084       .  S
C1391      C1392   1.406       .  A
C1392      N1396   1.438       .  S
N1394      H1397   1.046       .  S
N1394      H1398   1.045       .  S
N1396      H1399   1.046       .  S
N1396      H1400   1.046   1_556  S
C1405      C1406   1.417       .  A
C1405      C1410   1.407   1_565  A
C1406      C1407   1.398       .  A
C1406      N1411   1.439   1_554  S
C1407      H1412   1.084   1_554  S
C1407      C1408   1.396       .  A
C1408      C1413   1.465       .  S
C1408      C1409   1.406   1_565  A
C1409      C1410   1.404       .  A
C1409      N1414   1.438       .  S
C1410      H1415   1.083       .  S
N1411      H1431   1.046       .  S
N1411      H1432   1.045       .  S
C1413      C1416   1.394       .  A
C1413      C1420   1.411   1_565  A
N1414      H1429   1.046       .  S
N1414      H1430   1.045       .  S
C1416      H1421   1.084       .  S
C1416      C1417   1.394       .  A
C1417      C1418   1.410   1_565  A
C1417      N1422   1.433       .  S
C1418      C1419   1.402   1_554  A
C1419      H1423   1.084       .  S
C1419      C1420   1.407   1_556  A
C1420      N1424   1.437   1_554  S
N1422      H1425   1.046       .  S
N1422      H1426   1.045       .  S
N1424      H1427   1.046       .  S
N1424      H1428   1.045   1_556  S
C1433      C1434   1.408       .  A
C1433      C1438   1.402       .  A
C1434      C1435   1.409       .  A
C1434      N1439   1.432       .  S
C1435      H1440   1.084       .  S
C1435      C1436   1.408       .  A
C1436      C1441   1.502       .  S
C1436      C1437   1.423       .  A
C1437      C1438   1.408       .  A
C1437      N1442   1.439       .  S
C1438      H1443   1.083       .  S
N1439      H1459   1.046       .  S
N1439      H1460   1.046       .  S
C1441      C1444   1.406       .  A
C1441      C1448   1.413       .  A
N1442      H1457   1.046       .  S
N1442      H1458   1.042       .  S
C1444      H1449   1.084       .  S
C1444      C1445   1.411       .  A
C1445      C1446   1.416       .  A
C1445      N1450   1.438       .  S
C1446      C1447   1.408       .  A
C1447      H1451   1.083       .  S
C1447      C1448   1.412       .  A
C1448      N1452   1.437       .  S
N1450      H1453   1.046   1_565  S
N1450      H1454   1.045   1_565  S
N1452      H1455   1.044       .  S
N1452      H1456   1.047       .  S
C1461      C1462   1.414       .  A
C1461      C1466   1.407       .  A
C1462      C1463   1.403       .  A
C1462      N1467   1.438       .  S
C1463      H1468   1.084       .  S
C1463      C1464   1.400       .  A
C1464      C1469   1.479       .  S
C1464      C1465   1.414       .  A
C1465      C1466   1.404       .  A
C1465      N1470   1.438       .  S
C1466      H1471   1.083       .  S
N1467      H1487   1.046       .  S
N1467      H1488   1.045       .  S
C1469      C1472   1.399       .  A
C1469      C1476   1.407       .  A
N1470      H1485   1.046       .  S
N1470      H1486   1.044       .  S
C1472      H1477   1.084       .  S
C1472      C1473   1.402       .  A
C1473      C1474   1.421       .  A
C1473      N1478   1.440       .  S
C1474      C1475   1.404       .  A
C1475      H1479   1.084       .  S
C1475      C1476   1.405       .  A
C1476      N1480   1.437       .  S
N1478      H1481   1.046       .  S
N1478      H1482   1.041       .  S
N1480      H1483   1.046       .  S
N1480      H1484   1.046       .  S
C1489      C1490   1.413       .  A
C1489      C1494   1.402       .  A
C1490      C1491   1.408       .  A
C1490      N1495   1.437       .  S
C1491      H1496   1.084       .  S
C1491      C1492   1.405       .  A
C1492      C1497   1.492       .  S
C1492      C1493   1.421       .  A
C1493      C1494   1.403       .  A
C1493      N1498   1.440       .  S
C1494      H1499   1.084       .  S
N1495      H1515   1.045       .  S
N1495      H1516   1.045       .  S
C1497      C1500   1.403       .  A
C1497      C1504   1.413       .  A
N1498      H1513   1.046       .  S
N1498      H1514   1.042       .  S
C1500      H1505   1.084       .  S
C1500      C1501   1.407       .  A
C1501      C1502   1.415       .  A
C1501      N1506   1.438       .  S
C1502      C1503   1.404       .  A
C1503      H1507   1.084       .  S
C1503      C1504   1.410       .  A
C1504      N1508   1.437       .  S
N1506      H1509   1.046       .  S
N1506      H1510   1.046       .  S
N1508      H1511   1.046       .  S
N1508      H1512   1.046       .  S
C1517      C1518   1.417       .  A
C1517      C1522   1.407       .  A
C1518      C1519   1.404       .  A
C1518      N1523   1.438       .  S
C1519      H1524   1.084       .  S
C1519      C1520   1.401       .  A
C1520      C1525   1.486       .  S
C1520      C1521   1.410       .  A
C1521      C1522   1.409       .  A
C1521      N1526   1.437       .  S
C1522      H1527   1.083       .  S
N1523      H1543   1.046       .  S
N1523      H1544   1.046       .  S
C1525      C1528   1.402       .  A
C1525      C1532   1.419       .  A
N1526      H1541   1.046       .  S
N1526      H1542   1.046       .  S
C1528      H1533   1.084       .  S
C1528      C1529   1.406       .  A
C1529      C1530   1.416       .  A
C1529      N1534   1.438       .  S
C1530      C1531   1.404       .  A
C1531      H1535   1.083       .  S
C1531      C1532   1.403       .  A
C1532      N1536   1.439       .  S
N1534      H1537   1.046       .  S
N1534      H1538   1.045       .  S
N1536      H1539   1.046       .  S
N1536      H1540   1.043       .  S
C1545      C1546   1.418       .  A
C1545      C1550   1.407       .  A
C1546      C1547   1.406       .  A
C1546      N1551   1.439       .  S
C1547      H1552   1.084       .  S
C1547      C1548   1.402       .  A
C1548      C1553   1.486       .  S
C1548      C1549   1.408       .  A
C1549      C1550   1.405       .  A
C1549      N1554   1.437       .  S
C1550      H1555   1.083       .  S
N1551      H1571   1.046       .  S
N1551      H1572   1.046       .  S
C1553      C1556   1.402       .  A
C1553      C1560   1.408       .  A
N1554      H1569   1.046       .  S
N1554      H1570   1.045       .  S
C1556      H1561   1.084       .  S
C1556      C1557   1.406   1_545  A
C1557      C1558   1.417       .  A
C1557      N1562   1.438       .  S
C1558      C1559   1.411   1_565  A
C1559      H1563   1.083   1_545  S
C1559      C1560   1.406       .  A
C1560      N1564   1.438       .  S
N1562      H1565   1.046       .  S
N1562      H1566   1.046       .  S
N1564      H1567   1.046       .  S
N1564      H1568   1.046       .  S
C1573      C1574   1.417       .  A
C1573      C1578   1.409       .  A
C1574      C1575   1.407       .  A
C1574      N1579   1.438       .  S
C1575      H1580   1.084       .  S
C1575      C1576   1.401       .  A
C1576      C1581   1.478       .  S
C1576      C1577   1.405       .  A
C1577      C1578   1.404       .  A
C1577      N1582   1.438       .  S
C1578      H1583   1.084       .  S
N1579      H1599   1.045       .  S
N1579      H1600   1.046       .  S
C1581      C1584   1.401       .  A
C1581      C1588   1.407       .  A
N1582      H1597   1.046       .  S
N1582      H1598   1.045       .  S
C1584      H1589   1.084       .  S
C1584      C1585   1.406       .  A
C1585      C1586   1.413       .  A
C1585      N1590   1.431       .  S
C1586      C1587   1.408       .  A
C1587      H1591   1.083       .  S
C1587      C1588   1.403       .  A
C1588      N1592   1.439       .  S
N1590      H1593   1.045       .  S
N1590      H1594   1.045       .  S
N1592      H1595   1.046       .  S
N1592      H1596   1.045       .  S
C1601      C1602   1.420       .  A
C1601      C1606   1.406       .  A
C1602      C1603   1.407       .  A
C1602      N1607   1.438   1_565  S
C1603      H1608   1.084       .  S
C1603      C1604   1.405       .  A
C1604      C1609   1.494       .  S
C1604      C1605   1.419       .  A
C1605      C1606   1.405       .  A
C1605      N1610   1.438       .  S
C1606      H1611   1.084       .  S
N1607      H1627   1.041       .  S
N1607      H1628   1.046       .  S
C1609      C1612   1.403       .  A
C1609      C1616   1.414       .  A
N1610      H1625   1.045       .  S
N1610      H1626   1.043       .  S
C1612      H1617   1.084       .  S
C1612      C1613   1.406       .  A
C1613      C1614   1.414       .  A
C1613      N1618   1.433       .  S
C1614      C1615   1.408       .  A
C1615      H1619   1.083       .  S
C1615      C1616   1.413       .  A
C1616      N1620   1.438       .  S
N1618      H1621   1.046       .  S
N1618      H1622   1.046       .  S
N1620      H1623   1.045       .  S
N1620      H1624   1.043       .  S
C1629      C1630   1.423       .  A
C1629      C1634   1.410       .  A
C1630      C1631   1.400       .  A
C1630      N1635   1.433       .  S
C1631      H1636   1.084       .  S
C1631      C1632   1.397       .  A
C1632      C1637   1.493       .  S
C1632      C1633   1.413       .  A
C1633      C1634   1.418       .  A
C1633      N1638   1.437       .  S
C1634      H1639   1.083       .  S
N1635      H1655   1.046       .  S
N1635      H1656   1.046       .  S
C1637      C1640   1.405       .  A
C1637      C1644   1.413       .  A
N1638      H1653   1.046       .  S
N1638      H1654   1.046       .  S
C1640      H1645   1.083       .  S
C1640      C1641   1.411       .  A
C1641      C1642   1.412       .  A
C1641      N1646   1.437       .  S
C1642      C1643   1.404       .  A
C1643      H1647   1.083       .  S
C1643      C1644   1.406       .  A
C1644      N1648   1.438       .  S
N1646      H1649   1.045       .  S
N1646      H1650   1.046       .  S
N1648      H1651   1.046       .  S
N1648      H1652   1.046       .  S
C1657      C1658   1.411       .  A
C1657      C1662   1.405       .  A
C1658      C1659   1.403       .  A
C1658      N1663   1.437       .  S
C1659      H1664   1.084       .  S
C1659      C1660   1.403       .  A
C1660      C1665   1.476       .  S
C1660      C1661   1.414       .  A
C1661      C1662   1.398       .  A
C1661      N1666   1.440       .  S
C1662      H1667   1.084       .  S
N1663      H1683   1.045       .  S
N1663      H1684   1.046       .  S
C1665      C1668   1.401       .  A
C1665      C1672   1.406       .  A
N1666      H1681   1.046       .  S
N1666      H1682   1.043       .  S
C1668      H1673   1.084       .  S
C1668      C1669   1.405       .  A
C1669      C1670   1.416       .  A
C1669      N1674   1.438       .  S
C1670      C1671   1.407       .  A
C1671      H1675   1.084       .  S
C1671      C1672   1.401       .  A
C1672      N1676   1.438       .  S
N1674      H1677   1.046       .  S
N1674      H1678   1.045       .  S
N1676      H1679   1.046       .  S
N1676      H1680   1.046       .  S
C1685      C1686   1.421       .  A
C1685      C1690   1.407       .  A
C1686      C1687   1.411       .  A
C1686      N1691   1.438       .  S
C1687      H1692   1.084       .  S
C1687      C1688   1.401       .  A
C1688      C1693   1.487       .  S
C1688      C1689   1.410       .  A
C1689      C1690   1.409       .  A
C1689      N1694   1.438       .  S
C1690      H1695   1.083       .  S
N1691      H1711   1.045       .  S
N1691      H1712   1.046       .  S
C1693      C1696   1.400       .  A
C1693      C1700   1.409       .  A
N1694      H1709   1.046       .  S
N1694      H1710   1.045       .  S
C1696      H1701   1.084       .  S
C1696      C1697   1.405       .  A
C1697      C1698   1.417       .  A
C1697      N1702   1.432       .  S
C1698      C1699   1.412       .  A
C1699      H1703   1.083   1_545  S
C1699      C1700   1.412       .  A
C1700      N1704   1.438       .  S
N1702      H1705   1.046       .  S
N1702      H1706   1.046       .  S
N1704      H1707   1.046       .  S
N1704      H1708   1.045       .  S
C1713      C1714   1.419       .  A
C1713      C1718   1.411       .  A
C1714      C1715   1.412       .  A
C1714      N1719   1.437       .  S
C1715      H1720   1.084       .  S
C1715      C1716   1.404       .  A
C1716      C1721   1.490       .  S
C1716      C1717   1.406       .  A
C1717      C1718   1.405       .  A
C1717      N1722   1.438       .  S
C1718      H1723   1.080       .  S
N1719      H1739   1.046       .  S
N1719      H1740   1.046       .  S
C1721      C1724   1.403       .  A
C1721      C1728   1.408       .  A
N1722      H1737   1.044       .  S
N1722      H1738   1.045       .  S
C1724      H1729   1.084       .  S
C1724      C1725   1.406   1_655  A
C1725      C1726   1.416       .  A
C1725      N1730   1.436       .  S
C1726      C1727   1.412   1_455  A
C1727      H1731   1.083   1_655  S
C1727      C1728   1.408       .  A
C1728      N1732   1.437       .  S
N1730      H1733   1.045       .  S
N1730      H1734   1.046       .  S
N1732      H1735   1.046       .  S
N1732      H1736   1.046       .  S
C1741      C1742   1.417       .  A
C1741      C1746   1.406       .  A
C1742      C1743   1.406       .  A
C1742      N1747   1.436       .  S
C1743      H1748   1.084       .  S
C1743      C1744   1.400       .  A
C1744      C1749   1.488       .  S
C1744      C1745   1.410       .  A
C1745      C1746   1.411       .  A
C1745      N1750   1.437       .  S
C1746      H1751   1.083       .  S
N1747      H1767   1.044       .  S
N1747      H1768   1.046       .  S
C1749      C1752   1.405       .  A
C1749      C1756   1.416       .  A
N1750      H1765   1.046       .  S
N1750      H1766   1.046       .  S
C1752      H1757   1.084       .  S
C1752      C1753   1.407       .  A
C1753      C1754   1.419       .  A
C1753      N1758   1.437       .  S
C1754      C1755   1.404       .  A
C1755      H1759   1.084   1_455  S
C1755      C1756   1.400       .  A
C1756      N1760   1.440       .  S
N1758      H1761   1.046       .  S
N1758      H1762   1.043       .  S
N1760      H1763   1.045   1_455  S
N1760      H1764   1.043       .  S
C1769      C1770   1.415       .  A
C1769      C1774   1.407       .  A
C1770      C1771   1.406       .  A
C1770      N1775   1.439   1_565  S
C1771      H1776   1.084       .  S
C1771      C1772   1.404       .  A
C1772      C1777   1.495       .  S
C1772      C1773   1.419       .  A
C1773      C1774   1.408       .  A
C1773      N1778   1.437       .  S
C1774      H1779   1.083       .  S
N1775      H1795   1.044       .  S
N1775      H1796   1.045       .  S
C1777      C1780   1.402       .  A
C1777      C1784   1.414       .  A
N1778      H1793   1.046       .  S
N1778      H1794   1.043       .  S
C1780      H1785   1.084       .  S
C1780      C1781   1.407       .  A
C1781      C1782   1.415       .  A
C1781      N1786   1.438       .  S
C1782      C1783   1.406       .  A
C1783      H1787   1.083       .  S
C1783      C1784   1.414       .  A
C1784      N1788   1.437       .  S
N1786      H1789   1.046       .  S
N1786      H1790   1.046       .  S
N1788      H1791   1.046       .  S
N1788      H1792   1.045       .  S
C1797      C1798   1.412       .  A
C1797      C1802   1.409       .  A
C1798      C1799   1.407       .  A
C1798      N1803   1.432       .  S
C1799      H1804   1.084       .  S
C1799      C1800   1.407       .  A
C1800      C1805   1.502       .  S
C1800      C1801   1.421       .  A
C1801      C1802   1.411       .  A
C1801      N1806   1.439       .  S
C1802      H1807   1.083       .  S
N1803      H1823   1.045       .  S
N1803      H1824   1.046       .  S
C1805      C1808   1.408   1_655  A
C1805      C1812   1.411       .  A
N1806      H1821   1.046       .  S
N1806      H1822   1.043       .  S
C1808      H1813   1.083       .  S
C1808      C1809   1.416       .  A
C1809      C1810   1.415       .  A
C1809      N1814   1.437       .  S
C1810      C1811   1.410       .  A
C1811      H1815   1.084       .  S
C1811      C1812   1.410   1_455  A
C1812      N1816   1.438       .  S
N1814      H1817   1.046       .  S
N1814      H1818   1.045       .  S
N1816      H1819   1.046       .  S
N1816      H1820   1.046       .  S
C1825      C1826   1.415       .  A
C1825      C1830   1.407       .  A
C1826      C1827   1.410       .  A
C1826      N1831   1.438       .  S
C1827      H1832   1.084       .  S
C1827      C1828   1.404       .  A
C1828      C1833   1.495       .  S
C1828      C1829   1.411       .  A
C1829      C1830   1.410       .  A
C1829      N1834   1.438       .  S
C1830      H1835   1.084       .  S
N1831      H1851   1.045       .  S
N1831      H1852   1.046       .  S
C1833      C1836   1.407       .  A
C1833      C1840   1.420       .  A
N1834      H1849   1.046       .  S
N1834      H1850   1.046       .  S
C1836      H1841   1.084       .  S
C1836      C1837   1.404       .  A
C1837      C1838   1.412       .  A
C1837      N1842   1.432       .  S
C1838      C1839   1.404       .  A
C1839      H1843   1.084       .  S
C1839      C1840   1.406       .  A
C1840      N1844   1.439       .  S
N1842      H1845   1.044       .  S
N1842      H1846   1.045       .  S
N1844      H1847   1.045       .  S
N1844      H1848   1.043       .  S
C1853      C1854   1.414       .  A
C1853      C1858   1.407       .  A
C1854      C1855   1.404       .  A
C1854      N1859   1.433       .  S
C1855      H1860   1.084       .  S
C1855      C1856   1.402       .  A
C1856      C1861   1.494       .  S
C1856      C1857   1.420       .  A
C1857      C1858   1.411       .  A
C1857      N1862   1.438       .  S
C1858      H1863   1.083       .  S
N1859      H1879   1.046       .  S
N1859      H1880   1.045       .  S
C1861      C1864   1.406       .  A
C1861      C1868   1.409       .  A
N1862      H1877   1.045       .  S
N1862      H1878   1.044       .  S
C1864      H1869   1.084       .  S
C1864      C1865   1.408       .  A
C1865      C1866   1.419       .  A
C1865      N1870   1.432       .  S
C1866      C1867   1.407       .  A
C1867      H1871   1.084       .  S
C1867      C1868   1.408       .  A
C1868      N1872   1.438       .  S
N1870      H1873   1.044       .  S
N1870      H1874   1.046       .  S
N1872      H1875   1.046       .  S
N1872      H1876   1.045       .  S
C1881      C1882   1.411       .  A
C1881      C1886   1.401       .  A
C1882      C1883   1.409       .  A
C1882      N1887   1.437       .  S
C1883      H1888   1.084       .  S
C1883      C1884   1.407       .  A
C1884      C1889   1.491       .  S
C1884      C1885   1.421       .  A
C1885      C1886   1.401       .  A
C1885      N1890   1.440       .  S
C1886      H1891   1.084       .  S
N1887      H1907   1.046       .  S
N1887      H1908   1.045       .  S
C1889      C1892   1.405       .  A
C1889      C1896   1.412   1_545  A
N1890      H1905   1.046       .  S
N1890      H1906   1.041       .  S
C1892      H1897   1.084       .  S
C1892      C1893   1.408       .  A
C1893      C1894   1.412   1_545  A
C1893      N1898   1.437       .  S
C1894      C1895   1.405       .  A
C1895      H1899   1.084       .  S
C1895      C1896   1.409       .  A
C1896      N1900   1.438       .  S
N1898      H1901   1.046       .  S
N1898      H1902   1.046       .  S
N1900      H1903   1.046       .  S
N1900      H1904   1.046       .  S
C1909      C1910   1.414       .  A
C1909      C1914   1.406       .  A
C1910      C1911   1.407       .  A
C1910      N1915   1.437       .  S
C1911      H1916   1.084       .  S
C1911      C1912   1.404       .  A
C1912      C1917   1.488       .  S
C1912      C1913   1.418       .  A
C1913      C1914   1.405       .  A
C1913      N1918   1.438       .  S
C1914      H1919   1.084       .  S
N1915      H1935   1.045       .  S
N1915      H1936   1.046       .  S
C1917      C1920   1.395       .  A
C1917      C1924   1.412       .  A
N1918      H1933   1.046       .  S
N1918      H1934   1.043       .  S
C1920      H1925   1.084       .  S
C1920      C1921   1.401       .  A
C1921      C1922   1.424       .  A
C1921      N1926   1.438       .  S
C1922      C1923   1.411       .  A
C1923      H1927   1.083       .  S
C1923      C1924   1.416       .  A
C1924      N1928   1.437       .  S
N1926      H1929   1.046       .  S
N1926      H1930   1.045       .  S
N1928      H1931   1.046       .  S
N1928      H1932   1.045       .  S
C1937      C1938   1.413       .  A
C1937      C1942   1.405       .  A
C1938      C1939   1.408       .  A
C1938      N1943   1.438       .  S
C1939      H1944   1.084       .  S
C1939      C1940   1.402       .  A
C1940      C1945   1.484       .  S
C1940      C1941   1.411       .  A
C1941      C1942   1.407       .  A
C1941      N1946   1.439       .  S
C1942      H1947   1.084       .  S
N1943      H1963   1.046       .  S
N1943      H1964   1.046       .  S
C1945      C1948   1.403       .  A
C1945      C1952   1.418       .  A
N1946      H1961   1.046       .  S
N1946      H1962   1.044       .  S
C1948      H1953   1.084       .  S
C1948      C1949   1.408       .  A
C1949      C1950   1.412       .  A
C1949      N1954   1.437       .  S
C1950      C1951   1.404       .  A
C1951      H1955   1.084       .  S
C1951      C1952   1.400       .  A
C1952      N1956   1.439       .  S
N1954      H1957   1.045       .  S
N1954      H1958   1.046       .  S
N1956      H1959   1.045       .  S
N1956      H1960   1.043       .  S
C1965      C1966   1.415       .  A
C1965      C1970   1.404       .  A
C1966      C1967   1.409   1_565  A
C1966      N1971   1.438       .  S
C1967      H1972   1.084       .  S
C1967      C1968   1.405       .  A
C1968      C1973   1.496       .  S
C1968      C1969   1.413       .  A
C1969      C1970   1.410   1_545  A
C1969      N1974   1.437       .  S
C1970      H1975   1.084       .  S
N1971      H1991   1.046       .  S
N1971      H1992   1.046       .  S
C1973      C1976   1.406       .  A
C1973      C1980   1.422       .  A
N1974      H1989   1.045       .  S
N1974      H1990   1.046       .  S
C1976      H1981   1.084       .  S
C1976      C1977   1.409       .  A
C1977      C1978   1.409       .  A
C1977      N1982   1.437       .  S
C1978      C1979   1.403       .  A
C1979      H1983   1.083       .  S
C1979      C1980   1.406       .  A
C1980      N1984   1.440       .  S
N1982      H1985   1.045       .  S
N1982      H1986   1.045       .  S
N1984      H1987   1.046       .  S
N1984      H1988   1.042       .  S
C1993      C1994   1.414       .  A
C1993      C1998   1.407       .  A
C1994      C1995   1.399       .  A
C1994      N1999   1.438       .  S
C1995      H2000   1.084       .  S
C1995      C1996   1.400       .  A
C1996      C2001   1.469       .  S
C1996      C1997   1.405       .  A
C1997      C1998   1.399       .  A
C1997      N2002   1.438       .  S
C1998      H2003   1.083       .  S
N1999      H2019   1.046       .  S
N1999      H2020   1.046       .  S
C2001      C2004   1.403       .  A
C2001      C2008   1.403       .  A
N2002      H2017   1.046       .  S
N2002      H2018   1.046       .  S
C2004      H2009   1.084       .  S
C2004      C2005   1.405       .  A
C2005      C2006   1.413       .  A
C2005      N2010   1.437       .  S
C2006      C2007   1.409       .  A
C2007      H2011   1.083       .  S
C2007      C2008   1.395       .  A
C2008      N2012   1.439       .  S
N2010      H2013   1.046       .  S
N2010      H2014   1.046       .  S
N2012      H2015   1.046       .  S
N2012      H2016   1.046       .  S
C2021      C2022   1.415       .  A
C2021      C2026   1.403       .  A
C2022      C2023   1.393       .  A
C2022      N2027   1.438       .  S
C2023      H2028   1.085       .  S
C2023      C2024   1.391       .  A
C2024      C2029   1.460       .  S
C2024      C2025   1.408       .  A
C2025      C2026   1.406       .  A
C2025      N2030   1.437       .  S
C2026      H2031   1.084       .  S
N2027      H2047   1.045       .  S
N2027      H2048   1.045       .  S
C2029      C2032   1.396       .  A
C2029      C2036   1.403       .  A
N2030      H2045   1.046       .  S
N2030      H2046   1.045       .  S
C2032      H2037   1.084       .  S
C2032      C2033   1.399   1_655  A
C2033      C2034   1.419       .  A
C2033      N2038   1.439       .  S
C2034      C2035   1.407   1_455  A
C2035      H2039   1.083   1_655  S
C2035      C2036   1.399       .  A
C2036      N2040   1.438       .  S
N2038      H2041   1.046       .  S
N2038      H2042   1.046       .  S
N2040      H2043   1.046       .  S
N2040      H2044   1.045       .  S
C2049      C2050   1.418       .  A
C2049      C2054   1.406       .  A
C2050      C2051   1.405       .  A
C2050      N2055   1.437   1_455  S
C2051      H2056   1.084       .  S
C2051      C2052   1.406       .  A
C2052      C2057   1.498       .  S
C2052      C2053   1.413       .  A
C2053      C2054   1.409       .  A
C2053      N2058   1.438       .  S
C2054      H2059   1.084       .  S
N2055      H2075   1.043       .  S
N2055      H2076   1.045   1_655  S
C2057      C2060   1.404       .  A
C2057      C2064   1.412       .  A
N2058      H2073   1.046       .  S
N2058      H2074   1.045       .  S
C2060      H2065   1.083       .  S
C2060      C2061   1.411       .  A
C2061      C2062   1.421       .  A
C2061      N2066   1.438       .  S
C2062      C2063   1.409       .  A
C2063      H2067   1.083       .  S
C2063      C2064   1.409       .  A
C2064      N2068   1.438       .  S
N2066      H2069   1.045       .  S
N2066      H2070   1.046       .  S
N2068      H2071   1.045       .  S
N2068      H2072   1.046       .  S
C2077      C2078   1.416       .  A
C2077      C2082   1.405       .  A
C2078      C2079   1.411       .  A
C2078      N2083   1.438       .  S
C2079      H2084   1.084       .  S
C2079      C2080   1.405       .  A
C2080      C2085   1.493       .  S
C2080      C2081   1.411       .  A
C2081      C2082   1.407       .  A
C2081      N2086   1.438       .  S
C2082      H2087   1.084       .  S
N2083      H2103   1.046       .  S
N2083      H2104   1.046       .  S
C2085      C2088   1.406       .  A
C2085      C2092   1.420       .  A
N2086      H2101   1.046       .  S
N2086      H2102   1.046       .  S
C2088      H2093   1.084       .  S
C2088      C2089   1.405       .  A
C2089      C2090   1.410       .  A
C2089      N2094   1.438       .  S
C2090      C2091   1.406       .  A
C2091      H2095   1.084       .  S
C2091      C2092   1.406       .  A
C2092      N2096   1.439       .  S
N2094      H2097   1.046       .  S
N2094      H2098   1.045       .  S
N2096      H2099   1.046       .  S
N2096      H2100   1.042       .  S
C2105      C2106   1.423       .  A
C2105      C2110   1.411       .  A
C2106      C2107   1.405   1_455  A
C2106      N2111   1.439       .  S
C2107      H2112   1.084       .  S
C2107      C2108   1.399       .  A
C2108      C2113   1.493       .  S
C2108      C2109   1.410   1_655  A
C2109      C2110   1.415       .  A
C2109      N2114   1.437       .  S
C2110      H2115   1.083       .  S
N2111      H2131   1.046       .  S
N2111      H2132   1.046   1_455  S
C2113      C2116   1.405       .  A
C2113      C2120   1.418       .  A
N2114      H2129   1.046       .  S
N2114      H2130   1.045   1_455  S
C2116      H2121   1.084       .  S
C2116      C2117   1.409       .  A
C2117      C2118   1.413       .  A
C2117      N2122   1.432       .  S
C2118      C2119   1.406       .  A
C2119      H2123   1.082       .  S
C2119      C2120   1.403       .  A
C2120      N2124   1.439       .  S
N2122      H2125   1.045       .  S
N2122      H2126   1.046       .  S
N2124      H2127   1.047       .  S
N2124      H2128   1.043       .  S
C2133      C2134   1.416       .  A
C2133      C2138   1.405       .  A
C2134      C2135   1.410       .  A
C2134      N2139   1.438       .  S
C2135      H2140   1.084       .  S
C2135      C2136   1.403       .  A
C2136      C2141   1.492       .  S
C2136      C2137   1.419       .  A
C2137      C2138   1.405       .  A
C2137      N2142   1.439       .  S
C2138      H2143   1.080       .  S
N2139      H2159   1.045       .  S
N2139      H2160   1.045       .  S
C2141      C2144   1.402       .  A
C2141      C2148   1.412       .  A
N2142      H2157   1.045       .  S
N2142      H2158   1.044       .  S
C2144      H2149   1.084       .  S
C2144      C2145   1.404       .  A
C2145      C2146   1.421       .  A
C2145      N2150   1.432       .  S
C2146      C2147   1.408       .  A
C2147      H2151   1.084       .  S
C2147      C2148   1.410       .  A
C2148      N2152   1.438       .  S
N2150      H2153   1.045       .  S
N2150      H2154   1.045       .  S
N2152      H2155   1.046       .  S
N2152      H2156   1.043       .  S
