geometry optimzed in LAMMPS
_audit_creation_date              2020-11-30 
_audit_creation_method            'lammps2cif' 
_symmetry_space_group_name_H-M    'P1' 
_symmetry_Int_Tables_number       1 
_symmetry_cell_setting            triclinic 
loop_ 
_symmetry_equiv_pos_as_xyz 
  x,y,z 
_cell_length_a                    45.45379584 
_cell_length_b                    45.4418231004349 
_cell_length_c                    45.479597008981266 
_cell_angle_alpha                 90.12124014678355 
_cell_angle_beta                  90.13597026426702 
_cell_angle_gamma                 90.17105415241583 
loop_ 
_atom_site_label 
_atom_site_type_symbol 
_atom_site_fract_x 
_atom_site_fract_y 
_atom_site_fract_z 
_atom_site_charge 
N1          N  0.55733979  0.50939713  0.03709112    -0.05100
N2          N  0.57918746  0.51932614  0.05361230    -0.57200
N3          N  0.55491016  0.47999273  0.97101968    -0.04700
N4          N  0.57578593  0.46989839  0.95353675    -0.59300
N5          N  0.55477422  0.50899378  0.97063487    -0.04300
N6          N  0.57556344  0.51902260  0.95305686    -0.57200
N7          N  0.55677409  0.48042747  0.03750185    -0.04000
N8          N  0.57819094  0.47018892  0.05413394    -0.59700
C9          C  0.59191173  0.49461046  0.06423250     0.97100
C10         C  0.58835787  0.49445721  0.94226965     0.96900
N11         N  0.47585651  0.43033865  0.97396621    -0.05200
N12         N  0.46534721  0.40921822  0.95688276    -0.57800
N13         N  0.50663655  0.43084202  0.04007662    -0.03400
N14         N  0.51670292  0.41045279  0.05823788    -0.59000
N15         N  0.47766567  0.43120921  0.04060446    -0.05300
N16         N  0.46755876  0.41115276  0.05889503    -0.58000
N17         N  0.50480971  0.43045076  0.97325063    -0.03000
N18         N  0.51447807  0.40943019  0.95580034    -0.59100
Mn19       Mn  0.53105631  0.45509028  0.00547142     1.18400
C20         C  0.48969495  0.39651230  0.94550787     0.99200
C21         C  0.49202589  0.39852081  0.07000460     0.99900
N22         N  0.50459186  0.55891666  0.97175731    -0.05300
N23         N  0.51288803  0.57964849  0.95307052    -0.61600
N24         N  0.47890764  0.55860988  0.04009213    -0.04100
N25         N  0.46989900  0.57846390  0.05933429    -0.62300
N26         N  0.50781582  0.55851867  0.03873197    -0.04800
N27         N  0.51900351  0.57820670  0.05691518    -0.61900
N28         N  0.47570824  0.55805610  0.97328494    -0.03700
N29         N  0.46387626  0.57781957  0.95582307    -0.62600
Mn30       Mn  0.53144939  0.53438060  0.00442097     1.10700
C31         C  0.48713220  0.59108094  0.94313388     1.00400
C32         C  0.49520155  0.59036034  0.06982513     1.00500
N33         N  0.42802637  0.48085002  0.04151364    -0.04800
N34         N  0.40605457  0.47171559  0.05820975    -0.60200
N35         N  0.42667609  0.50892445  0.97480154    -0.04100
N36         N  0.40594750  0.51887725  0.95705456    -0.56900
N37         N  0.42654701  0.47997052  0.97500992    -0.05400
N38         N  0.40565609  0.46968822  0.95759995    -0.59700
N39         N  0.42898236  0.50979756  0.04127836    -0.04400
N40         N  0.40787962  0.52081250  0.05766454    -0.56900
Mn41       Mn  0.45176658  0.45524310  0.00780034     1.20200
Mn42       Mn  0.45241216  0.53411772  0.00743790     1.10100
Cl43       Cl  0.49171381  0.49467903  0.00626587    -0.84900
C44         C  0.39388849  0.49694648  0.06833306     0.97400
C45         C  0.39317393  0.49415211  0.94628468     0.97200
N46         N  0.19843760  0.50585753  0.20987140    -0.02400
C47         C  0.22774070  0.51004185  0.20611584     0.00200
C48         C  0.24214238  0.51069167  0.23290600    -0.22700
C49         C  0.22108465  0.50660352  0.25399200    -0.22900
C50         C  0.19460857  0.50377750  0.23931567    -0.02600
H51         H  0.26552568  0.51336706  0.23663429     0.13900
H52         H  0.22459170  0.50601146  0.27753082     0.13900
N53         N  0.78260387  0.49662017  0.21522306    -0.02400
C54         C  0.75296343  0.49589343  0.21195734     0.00200
C55         C  0.73924636  0.49775162  0.23899741    -0.22700
C56         C  0.76114110  0.49957840  0.25970739    -0.22900
C57         C  0.78740718  0.49872750  0.24459179     0.00100
H58         H  0.71581817  0.49744098  0.24318706     0.13900
H59         H  0.75828559  0.50060702  0.28330570     0.13900
N60         N  0.20247794  0.50125923  0.79599746    -0.02400
C61         C  0.19975161  0.50710493  0.76681317     0.00200
C62         C  0.22704610  0.50781306  0.75347026    -0.22700
C63         C  0.24734561  0.50202244  0.77489889    -0.22900
C64         C  0.23182467  0.49815308  0.80065095     0.00100
H65         H  0.23163637  0.51160750  0.73044289     0.13900
H66         H  0.27096622  0.50103162  0.77212061     0.13900
N67         N  0.77626166  0.48733773  0.78764993    -0.02400
C68         C  0.77910170  0.48283067  0.75811787     0.00200
C69         C  0.75182900  0.48290753  0.74457914    -0.22700
C70         C  0.73145834  0.48757550  0.76608129    -0.22900
C71         C  0.74678535  0.49033335  0.79219216     0.00100
H72         H  0.74725222  0.48042485  0.72133732     0.13900
H73         H  0.70787073  0.48882320  0.76302724     0.13900
N74         N  0.98689985  0.48983846  0.95462795    -0.35500
N75         N  0.94094803  0.49333375  0.99947784    -0.56100
N76         N  0.98622750  0.49219448  0.04570036    -0.35500
N77         N  0.03212960  0.49290899  0.00084981    -0.56100
C78         C  0.96314127  0.49461720  0.93721652     0.28000
C79         C  0.01126494  0.49348454  0.93792274     0.28000
C80         C  0.96188865  0.49615113  0.06230233     0.28000
C81         C  0.00996706  0.49771821  0.06295711     0.28000
C82         C  0.92352517  0.49100179  0.97539531     0.36700
C83         C  0.92317040  0.49074000  0.02316178     0.36700
C84         C  0.04992052  0.48958766  0.97728172     0.36700
C85         C  0.04956683  0.49200397  0.02499501     0.36700
C86         C  0.97260137  0.50071048  0.90889017    -0.20800
C87         C  0.00285541  0.50004803  0.90934854    -0.20800
C88         C  0.97025605  0.50382906  0.09065229    -0.20800
C89         C  0.00047613  0.50474270  0.09109582    -0.20800
C90         C  0.89444229  0.48758030  0.98388157    -0.21900
C91         C  0.89424398  0.48718281  0.01403200    -0.21900
C92         C  0.07887453  0.48684446  0.98650788    -0.21900
C93         C  0.07868359  0.48858399  0.01660946    -0.21900
C94         C  0.93313813  0.49283963  0.94579680    -0.17200
C95         C  0.04092446  0.49083231  0.94743316    -0.17200
C96         C  0.03995727  0.49560631  0.05445959    -0.17200
C97         C  0.93227807  0.49252377  0.05297424    -0.17200
H98         H  0.95916277  0.50527776  0.88978060     0.15700
H99         H  0.01703976  0.50412692  0.89070576     0.15700
H100        H  0.95606454  0.50841163  0.10917275     0.15700
H101        H  0.01381194  0.50990443  0.11015643     0.15700
H102        H  0.87527285  0.48557965  0.96985653     0.14000
H103        H  0.87489218  0.48473316  0.02763160     0.14000
H104        H  0.09825174  0.48436640  0.97295013     0.14000
H105        H  0.09793715  0.48775668  0.03060982     0.14000
H106        H  0.98655781  0.48341958  0.97638689     0.27200
H107        H  0.98651495  0.48494412  0.02418413     0.27200
N108        N  0.02332012  0.56221045  0.52038236    -0.05100
N109        N  0.04098024  0.58288520  0.53087852    -0.57200
N110        N  0.95713412  0.55816924  0.49012543    -0.04700
N111        N  0.93897193  0.57847342  0.48019265    -0.59300
N112        N  0.95667109  0.55758038  0.51904321    -0.04300
N113        N  0.93824246  0.57745337  0.52925172    -0.57200
N114        N  0.02362246  0.56243118  0.49146991    -0.04000
N115        N  0.04136173  0.58312051  0.48171020    -0.59700
C116        C  0.05221814  0.59560126  0.50642648     0.97100
C117        C  0.92715476  0.59019896  0.50482483     0.96900
N118        N  0.96379974  0.48104652  0.43896591    -0.05200
N119        N  0.94643632  0.47013918  0.41831348    -0.57800
N120        N  0.02836014  0.51464345  0.44115932    -0.03400
N121        N  0.04591483  0.52603311  0.42095036    -0.59000
N122        N  0.03047494  0.48577330  0.44121839    -0.05300
N123        N  0.04935168  0.47701452  0.42115515    -0.58000
N124        N  0.96132815  0.50985115  0.44010492    -0.03000
N125        N  0.94203268  0.51911561  0.42053730    -0.59100
Mn126      Mn  0.99254123  0.53663179  0.46534892     1.18400
C127        C  0.93281174  0.49411965  0.40723419     0.99200
C128        C  0.05902941  0.50222232  0.40878074     0.99900
N129        N  0.95873046  0.50734880  0.56719310    -0.05300
N130        N  0.93870186  0.51576809  0.58640221    -0.61600
N131        N  0.02776274  0.48325293  0.56859073    -0.04100
N132        N  0.04684282  0.47469136  0.58883150    -0.62300
N133        N  0.02551898  0.51211915  0.56869800    -0.04800
N134        N  0.04290273  0.52369004  0.58885371    -0.61900
N135        N  0.96080837  0.47848077  0.56679735    -0.03700
N136        N  0.94229722  0.46673482  0.58578076    -0.62600
Mn137      Mn  0.99101407  0.53514919  0.54426692     1.10700
C138        C  0.92844031  0.49020834  0.59769083     1.00400
C139        C  0.05624109  0.50024188  0.60118161     1.00500
N140        N  0.03246051  0.43489563  0.48921804    -0.04800
N141        N  0.05078655  0.41467787  0.47925231    -0.60200
N142        N  0.96499084  0.43018365  0.51627117    -0.04100
N143        N  0.94721198  0.40884920  0.52497309    -0.56900
N144        N  0.96585862  0.43119213  0.48737060    -0.05400
N145        N  0.94876413  0.41071296  0.47591077    -0.59700
N146        N  0.03164460  0.43433582  0.51815068    -0.04400
N147        N  0.04934397  0.41377588  0.52829086    -0.56900
Mn148      Mn  0.99827105  0.45794222  0.46384555     1.20200
Mn149      Mn  0.99637344  0.45614330  0.54292493     1.10100
Cl150      Cl  0.99458951  0.49644725  0.50411635    -0.84900
C151        C  0.06133770  0.40178473  0.50389847     0.97400
C152        C  0.93709671  0.39700368  0.49949837     0.97200
N153        N  0.50208977  0.78192909  0.22013205    -0.02400
C154        C  0.49828392  0.78551366  0.24961617     0.00200
C155        C  0.50005972  0.75881885  0.26399739    -0.22700
C156        C  0.50501748  0.73796377  0.24302671    -0.22900
C157        C  0.50613778  0.75247266  0.21639099     0.00100
H158        H  0.49791267  0.75494913  0.28737443     0.13900
H159        H  0.50684404  0.71451426  0.24671544     0.13900
N160        N  0.48420817  0.20863353  0.22192594    -0.02400
C161        C  0.47926889  0.23800181  0.21888626     0.00200
C162        C  0.47814122  0.25157634  0.24607576    -0.22700
C163        C  0.48274272  0.23013576  0.26661749    -0.22900
C164        C  0.48641231  0.20406373  0.25142028     0.00100
H165        H  0.47528805  0.27481057  0.25046314     0.13900
H166        H  0.48363843  0.23323045  0.29020857     0.13900
N167        N  0.49035699  0.20143929  0.80111149    -0.02400
C168        C  0.49047025  0.23116878  0.80303156     0.00200
C169        C  0.48933065  0.24346323  0.77524465    -0.22700
C170        C  0.48894875  0.22048786  0.75557708    -0.22900
C171        C  0.48975549  0.19501791  0.77203765     0.00100
H172        H  0.48944282  0.26665272  0.76986345     0.13900
H173        H  0.48908099  0.22214860  0.73184355     0.13900
N174        N  0.48762887  0.78754151  0.80012358    -0.02400
C175        C  0.49317018  0.79234731  0.77124492     0.00200
C176        C  0.49094175  0.76639319  0.75548162    -0.22700
C177        C  0.48367846  0.74484901  0.77523168    -0.22900
C178        C  0.48198392  0.75831735  0.80243643     0.00100
H179        H  0.49407450  0.76351473  0.73206702     0.13900
H180        H  0.48071350  0.72169077  0.77042470     0.13900
N181        N  0.48759549  0.04098798  0.01425027    -0.35500
N182        N  0.48973196  0.99600552  0.96812134    -0.56100
N183        N  0.49041033  0.95042559  0.01309644    -0.35500
N184        N  0.49278282  0.99549065  0.05905719    -0.56100
C185        C  0.49278629  0.05783019  0.99029343     0.28000
C186        C  0.49342217  0.05770194  0.03823694     0.28000
C187        C  0.49684778  0.93479146  0.98854719     0.28000
C188        C  0.49951557  0.93442514  0.03649075     0.28000
C189        C  0.48289987  0.01994997  0.95193589     0.36700
C190        C  0.48303799  0.97227376  0.95139972     0.36700
C191        C  0.48816897  0.01898195  0.07679224     0.36700
C192        C  0.49080361  0.97124931  0.07618545     0.36700
C193        C  0.50170505  0.08567069  0.99913580    -0.20800
C194        C  0.50182371  0.08569857  0.02932460    -0.20800
C195        C  0.51032633  0.90862332  0.99647864    -0.20800
C196        C  0.51180228  0.90830219  0.02671420    -0.20800
C197        C  0.47193972  0.01149030  0.92476100    -0.21900
C198        C  0.47171728  0.98125072  0.92452429    -0.21900
C199        C  0.48371394  0.00960409  0.10543387    -0.21900
C200        C  0.48529533  0.97939110  0.10503011    -0.21900
C201        C  0.48819973  0.04930607  0.96070954    -0.17200
C202        C  0.49008822  0.04880987  0.06790019    -0.17200
C203        C  0.49567652  0.94202963  0.06646096    -0.17200
C204        C  0.48929479  0.94282180  0.95935238    -0.17200
H205        H  0.50720761  0.10423125  0.98530211     0.15700
H206        H  0.50740944  0.10440247  0.04299047     0.15700
H207        H  0.51809813  0.89140263  0.98200263     0.15700
H208        H  0.52089393  0.89080387  0.04001091     0.15700
H209        H  0.46481127  0.02564800  0.90702416     0.14000
H210        H  0.46434917  0.96750497  0.90648465     0.14000
H211        H  0.48014768  0.02310428  0.12472011     0.14000
H212        H  0.48307247  0.96509773  0.12390473     0.14000
H213        H  0.47909529  0.01979199  0.01424903     0.27200
H214        H  0.47869877  0.97000055  0.01390492     0.27200
N215        N  0.21057859  0.78009745  0.50916771    -0.02400
C216        C  0.20618096  0.75063914  0.50612103     0.00200
C217        C  0.23244580  0.73564062  0.50905530    -0.22700
C218        C  0.25379953  0.75633127  0.51404269    -0.22900
C219        C  0.23995975  0.78333668  0.51388513     0.00100
H220        H  0.23566251  0.71206822  0.50805582     0.13900
H221        H  0.27704681  0.75218784  0.51706270     0.13900
N222        N  0.79061559  0.20201829  0.49913411    -0.02400
C223        C  0.76160237  0.19861016  0.50536598     0.00200
C224        C  0.74743619  0.22545267  0.50520394    -0.22700
C225        C  0.76827549  0.24617889  0.49866181    -0.22900
C226        C  0.79459136  0.23139208  0.49513700     0.00100
H227        H  0.72430473  0.22946580  0.50906937     0.13900
H228        H  0.76472630  0.26967016  0.49711902     0.13900
N229        N  0.21371955  0.21177633  0.50183450    -0.02400
C230        C  0.20904073  0.24122140  0.50404120     0.00200
C231        C  0.23534608  0.25648395  0.50252861    -0.22700
C232        C  0.25704274  0.23597526  0.49933402    -0.22900
C233        C  0.24336151  0.20879050  0.49918601     0.00100
H234        H  0.23838415  0.28009689  0.50363082     0.13900
H235        H  0.28041660  0.24035267  0.49789615     0.13900
N236        N  0.79107416  0.79134357  0.49320396    -0.02400
C237        C  0.76216588  0.79785272  0.48971515     0.00200
C238        C  0.74511442  0.77269989  0.48972838    -0.22700
C239        C  0.76394588  0.74971202  0.49371182    -0.22900
C240        C  0.79197016  0.76154893  0.49597173     0.00100
H241        H  0.72140087  0.77134962  0.48787158     0.13900
H242        H  0.75781777  0.72671680  0.49504742     0.13900
N243        N  0.96140395  0.99567631  0.49772826    -0.35500
N244        N  0.00578873  0.04242606  0.49695106    -0.56100
N245        N  0.05200364  0.99761019  0.50110675    -0.35500
N246        N  0.00760883  0.95100176  0.49751911    -0.56100
C247        C  0.94529814  0.01939647  0.48966579     0.28000
C248        C  0.94622135  0.97137967  0.48923065     0.28000
C249        C  0.06870242  0.02209580  0.49739349     0.28000
C250        C  0.06971757  0.97387299  0.49782671     0.28000
C251        C  0.98139712  0.05860481  0.50227780     0.36700
C252        C  0.02915636  0.05975631  0.50359762     0.36700
C253        C  0.98381628  0.93320011  0.49999730     0.36700
C254        C  0.03153168  0.93411354  0.50265547     0.36700
C255        C  0.91975735  0.00998961  0.47572668    -0.20800
C256        C  0.92023337  0.97973185  0.47568082    -0.20800
C257        C  0.09751009  0.01382579  0.49192827    -0.20800
C258        C  0.09820136  0.98352160  0.49239220    -0.20800
C259        C  0.98938626  0.08629401  0.51247100    -0.21900
C260        C  0.01959485  0.08714130  0.51292077    -0.21900
C261        C  0.99260743  0.90479736  0.50647440    -0.21900
C262        C  0.02276430  0.90528237  0.50785970    -0.21900
C263        C  0.95219848  0.04920111  0.49618097    -0.17200
C264        C  0.95442311  0.94183422  0.49457438    -0.17200
C265        C  0.06122682  0.94385835  0.50107134    -0.17200
C266        C  0.05905914  0.05167281  0.50045829    -0.17200
H267        H  0.90241754  0.02352573  0.46668612     0.15700
H268        H  0.90337487  0.96546878  0.46661652     0.15700
H269        H  0.11625938  0.02813476  0.48847618     0.15700
H270        H  0.11767278  0.97023402  0.48940736     0.15700
H271        H  0.97503562  0.10412391  0.51888776     0.14000
H272        H  0.03299626  0.10569071  0.51970377     0.14000
H273        H  0.97880643  0.88557632  0.50935517     0.14000
H274        H  0.03653530  0.88634340  0.51189555     0.14000
H275        H  0.98063863  0.99603624  0.51007980     0.27200
H276        H  0.03007585  0.99718554  0.50699068     0.27200
N277        N  0.56286710  0.96036324  0.52300024    -0.05100
N278        N  0.58489666  0.94379291  0.53224886    -0.57200
N279        N  0.56267543  0.02730168  0.49383724    -0.04700
N280        N  0.58317823  0.04519905  0.48356509    -0.59300
N281        N  0.56320402  0.02713556  0.52278745    -0.04300
N282        N  0.58403524  0.04483629  0.53268710    -0.57200
N283        N  0.56203235  0.96060408  0.49408154    -0.04000
N284        N  0.58322387  0.94426059  0.48319702    -0.59700
C285        C  0.59724542  0.93375307  0.50709851     0.97100
C286        C  0.59616837  0.05619974  0.50807139     0.96900
N287        N  0.48363410  0.02667379  0.44483993    -0.05200
N288        N  0.47351216  0.04497046  0.42468439    -0.57800
N289        N  0.51207735  0.95951592  0.44623980    -0.03400
N290        N  0.52169433  0.94009472  0.42690465    -0.59000
N291        N  0.48315823  0.95949087  0.44690499    -0.05300
N292        N  0.47255631  0.94012920  0.42804409    -0.58000
N293        N  0.51256579  0.02657235  0.44465272    -0.03000
N294        N  0.52266109  0.04460423  0.42430079    -0.59100
Mn295      Mn  0.53759882  0.99359779  0.46935007     1.18400
C296        C  0.49810962  0.05615081  0.41212838     0.99200
C297        C  0.49676485  0.92802628  0.41581508     0.99900
N298        N  0.51488937  0.02754979  0.57342760    -0.05300
N299        N  0.52560931  0.04387903  0.59501711    -0.61600
N300        N  0.48458744  0.96192555  0.57395839    -0.04100
N301        N  0.47473095  0.94513355  0.59550606    -0.62300
N302        N  0.51355574  0.96130885  0.57320994    -0.04800
N303        N  0.52383721  0.94427457  0.59425543    -0.61900
N304        N  0.48592900  0.02862495  0.57325071    -0.03700
N305        N  0.47650266  0.04596712  0.59451463    -0.62600
Mn306      Mn  0.53891083  0.99399613  0.54835344     1.10700
C307        C  0.50144958  0.05555229  0.60769650     1.00400
C308        C  0.49946940  0.93412297  0.60787141     1.00500
N309        N  0.43388222  0.96107656  0.49631789    -0.04800
N310        N  0.41320544  0.94277778  0.48695037    -0.60200
N311        N  0.43538446  0.02898432  0.52376027    -0.04100
N312        N  0.41543402  0.04789798  0.53320330    -0.56900
N313        N  0.43524224  0.02796195  0.49482959    -0.05400
N314        N  0.41538664  0.04607094  0.48410859    -0.59700
N315        N  0.43413964  0.96206797  0.52523668    -0.04400
N316        N  0.41362792  0.94460521  0.53605008    -0.56900
Mn317      Mn  0.45862245  0.99374619  0.47032788     1.20200
Mn318      Mn  0.45963428  0.99551949  0.54937493     1.10100
Cl319      Cl  0.49867127  0.99427031  0.50939419    -0.84900
C320        C  0.40083893  0.93253707  0.51199970     0.97400
C321        C  0.40325283  0.05852538  0.50815745     0.97200
C322        C  0.72844240  0.86762637  0.51701981    -0.27100
C323        C  0.70657411  0.87160828  0.49549845     0.06500
C324        C  0.70769112  0.85486854  0.46944962     0.26100
C325        C  0.72871245  0.83296265  0.46618481    -0.11600
C326        C  0.74885166  0.82722864  0.48873269    -0.25600
C327        C  0.74957169  0.84551073  0.51367445     0.36900
C328        C  0.68090088  0.89077203  0.50096502     0.06500
F329        F  0.68665422  0.85756188  0.44839245    -0.19400
H330        H  0.72764005  0.81868940  0.44708775     0.16300
F331        F  0.76857025  0.84000361  0.53605494    -0.23100
H332        H  0.72816594  0.88054984  0.53705392     0.18100
C333        C  0.66354863  0.88739394  0.52639294     0.26100
C334        C  0.63649532  0.90188316  0.52867705    -0.11600
C335        C  0.62620412  0.91935404  0.50546053    -0.25600
C336        C  0.64419408  0.92362848  0.48065284     0.37000
C337        C  0.67138615  0.90981154  0.47874062    -0.27300
F338        F  0.67183350  0.86878274  0.54818020    -0.19400
H339        H  0.62311282  0.89858906  0.54807634     0.16300
F340        F  0.63561814  0.94115477  0.45808863    -0.23100
H341        H  0.68463419  0.91313151  0.45924707     0.18100
C342        C  0.90655256  0.87686096  0.47088448    -0.27100
C343        C  0.88531852  0.87631534  0.49330222     0.06500
C344        C  0.88696077  0.89732351  0.51597758     0.26100
C345        C  0.90942658  0.91848324  0.51616710    -0.11600
C346        C  0.93083449  0.91887921  0.49396056    -0.25600
C347        C  0.92926667  0.89784198  0.47126655     0.36900
C348        C  0.86140325  0.85397132  0.49297751     0.06500
F349        F  0.86642645  0.89773201  0.53759096    -0.19400
H350        H  0.91019565  0.93463463  0.53370621     0.16300
F351        F  0.94959371  0.89776262  0.44945475    -0.23100
H352        H  0.90563962  0.86084529  0.45322978     0.18100
C353        C  0.84055746  0.85336681  0.47012309     0.26100
C354        C  0.81762209  0.83274101  0.47045277    -0.11600
C355        C  0.81511733  0.81220834  0.49339254    -0.25600
C356        C  0.83601214  0.81274738  0.51623044     0.37000
C357        C  0.85888518  0.83354210  0.51601537    -0.27300
F358        F  0.84194892  0.87321645  0.44790101    -0.19400
H359        H  0.80173968  0.83264528  0.45267037     0.16300
F360        F  0.83382545  0.79377626  0.53910326    -0.23100
H361        H  0.87467327  0.83377714  0.53389090     0.18100
C362        C  0.28042121  0.13828539  0.52249088    -0.27100
C363        C  0.30321584  0.13665538  0.50166157     0.06500
C364        C  0.30369085  0.15700625  0.47837396     0.26100
C365        C  0.28238464  0.17886082  0.47650389    -0.11600
C366        C  0.26035044  0.18123344  0.49785997    -0.25600
C367        C  0.25920815  0.16057012  0.52076237     0.36900
C368        C  0.32723564  0.11475582  0.50451860     0.06500
F369        F  0.32590862  0.15708138  0.45846860    -0.19400
H370        H  0.28400897  0.19505627  0.45912043     0.16300
F371        F  0.23913870  0.16330267  0.54263326    -0.23100
H372        H  0.27952386  0.12280915  0.54053989     0.18100
C373        C  0.34264085  0.11095247  0.53115901     0.26100
C374        C  0.36727524  0.09250957  0.53233515    -0.11600
C375        C  0.37707599  0.07779437  0.50700286    -0.25600
C376        C  0.36110656  0.08103192  0.48062507     0.37000
C377        C  0.33636682  0.09903317  0.47960364    -0.27300
F378        F  0.33470529  0.12594655  0.55571838    -0.19400
H379        H  0.37902842  0.09020170  0.55294134     0.16300
F380        F  0.36918184  0.06676599  0.45567976    -0.23100
H381        H  0.32450236  0.10105492  0.45902424     0.18100
C382        C  0.11954205  0.10363807  0.52668653    -0.27100
C383        C  0.12432989  0.12122628  0.50170447     0.06500
C384        C  0.10715670  0.11589888  0.47635686     0.26100
C385        C  0.08602734  0.09332394  0.47607660    -0.11600
C386        C  0.08163409  0.07562568  0.50095528    -0.25600
C387        C  0.09840492  0.08110165  0.52635584     0.36900
C388        C  0.14752222  0.14461031  0.50206203     0.06500
F389        F  0.11036326  0.13290589  0.45206065    -0.19400
H390        H  0.07302837  0.08960120  0.45641807     0.16300
F391        F  0.09417989  0.06467374  0.55087013    -0.23100
H392        H  0.13252343  0.10706683  0.54639848     0.18100
C393        C  0.14951324  0.16512064  0.52530495     0.26100
C394        C  0.17138950  0.18695637  0.52524182    -0.11600
C395        C  0.19183473  0.18867466  0.50222775    -0.25600
C396        C  0.19004139  0.16815078  0.47912998     0.37000
C397        C  0.16812075  0.14639636  0.47908173    -0.27300
F398        F  0.12985058  0.16456692  0.54770682    -0.19400
H399        H  0.17243116  0.20262622  0.54318351     0.16300
F400        F  0.20894238  0.16975318  0.45614291    -0.23100
H401        H  0.16733000  0.13078119  0.46107458     0.18100
C402        C  0.70460395  0.14657539  0.53421057    -0.27100
C403        C  0.70259601  0.12612537  0.51111519     0.06500
C404        C  0.72379719  0.12687443  0.48857699     0.26100
C405        C  0.74526857  0.14905731  0.48821288    -0.11600
C406        C  0.74566480  0.17074927  0.51017632    -0.25600
C407        C  0.72589050  0.16869506  0.53377403     0.36900
C408        C  0.67666240  0.10629813  0.50950623     0.06500
F409        F  0.72297067  0.10693994  0.46632891    -0.19400
H410        H  0.76014679  0.15052762  0.46970173     0.16300
F411        F  0.72596125  0.18929759  0.55545031    -0.23100
H412        H  0.68847906  0.14660898  0.55170764     0.18100
C413        C  0.66745099  0.09039621  0.53431713     0.26100
C414        C  0.64107079  0.07460269  0.53368150    -0.11600
C415        C  0.62353428  0.07390009  0.50819875    -0.25600
C416        C  0.63308531  0.08917420  0.48307781     0.37000
C417        C  0.65931820  0.10538363  0.48387284    -0.27300
F418        F  0.68406469  0.08998813  0.55915647    -0.19400
H419        H  0.63454974  0.06258780  0.55315849     0.16300
F420        F  0.61680846  0.08907659  0.45801742    -0.23100
H421        H  0.66567498  0.11792137  0.46466973     0.18100
C422        C  0.84072392  0.14021521  0.52061652    -0.27100
C423        C  0.85693195  0.13555454  0.49462887     0.06500
C424        C  0.84956883  0.15242947  0.46958626     0.26100
C425        C  0.82809402  0.17447050  0.47130386    -0.11600
C426        C  0.81249291  0.17918587  0.49741923    -0.25600
C427        C  0.81846049  0.16138902  0.52185702     0.36900
C428        C  0.88127732  0.11328779  0.49420802     0.06500
F429        F  0.86229779  0.14709711  0.44315886    -0.19400
H430        H  0.82313026  0.18754880  0.45205516     0.16300
F431        F  0.80343744  0.16528993  0.54730086    -0.23100
H432        H  0.84563059  0.12786066  0.54033804     0.18100
C433        C  0.90802231  0.11861141  0.47936213     0.26100
C434        C  0.93044440  0.09751067  0.47937196    -0.11600
C435        C  0.92776038  0.07142230  0.49571633    -0.25600
C436        C  0.90157519  0.06658197  0.51150945     0.37000
C437        C  0.87846927  0.08685578  0.51012136    -0.27300
F438        F  0.91328112  0.14474208  0.46597201    -0.19400
H439        H  0.95033787  0.10190297  0.46705748     0.16300
F440        F  0.89839649  0.04228875  0.52855367    -0.23100
H441        H  0.85836640  0.08187174  0.52183604     0.18100
C442        C  0.27696603  0.85520263  0.49482331    -0.27100
C443        C  0.29875854  0.85655821  0.51678364     0.06500
C444        C  0.29817487  0.83596865  0.53979304     0.26100
C445        C  0.27720954  0.81352615  0.53985910    -0.11600
C446        C  0.25647889  0.81115935  0.51708547    -0.25600
C447        C  0.25594241  0.83260468  0.49488891     0.36900
C448        C  0.32350458  0.87770925  0.51457194     0.06500
F449        F  0.31929167  0.83613017  0.56095484    -0.19400
H450        H  0.27816407  0.79692872  0.55690528     0.16300
F451        F  0.23684858  0.83029247  0.47201099    -0.23100
H452        H  0.27701801  0.87094576  0.47697567     0.18100
C453        C  0.34117363  0.87864439  0.48922797     0.26100
C454        C  0.36615838  0.89670674  0.48840344    -0.11600
C455        C  0.37415805  0.91380051  0.51293031    -0.25600
C456        C  0.35611117  0.91322508  0.53807443     0.37000
C457        C  0.33102134  0.89541404  0.53875552    -0.27300
F458        F  0.33505513  0.86107860  0.46580324    -0.19400
H459        H  0.37965380  0.89679530  0.46880713     0.16300
F460        F  0.36243887  0.93007323  0.56195232    -0.23100
H461        H  0.31756619  0.89516041  0.55838495     0.18100
C462        C  0.14837385  0.82845356  0.48377468    -0.27100
C463        C  0.14823622  0.85039828  0.50567230     0.06500
C464        C  0.16867191  0.84837004  0.52891411     0.26100
C465        C  0.18856621  0.82497665  0.53014065    -0.11600
C466        C  0.18889789  0.80327878  0.50813570    -0.25600
C467        C  0.16860153  0.80524482  0.48482857     0.36900
C468        C  0.12665096  0.87506260  0.50441553     0.06500
F469        F  0.17001702  0.86944864  0.55006569    -0.19400
H470        H  0.20399189  0.82386173  0.54827394     0.16300
F471        F  0.16894634  0.78530955  0.46259229    -0.23100
H472        H  0.13273419  0.82922984  0.46579912     0.18100
C473        C  0.12136709  0.89054059  0.47808601     0.26100
C474        C  0.10035625  0.91304281  0.47716045    -0.11600
C475        C  0.08474426  0.92102721  0.50253863    -0.25600
C476        C  0.09055297  0.90619483  0.52898938     0.37000
C477        C  0.11096266  0.88322345  0.52977574    -0.27300
F478        F  0.13685317  0.88430519  0.45337621    -0.19400
H479        H  0.09620844  0.92430403  0.45660241     0.16300
F480        F  0.07581932  0.91344696  0.55388573    -0.23100
H481        H  0.11418396  0.87149133  0.55022287     0.18100
C482        C  0.48063697  0.86616521  0.73651249    -0.27100
C483        C  0.50262206  0.86583085  0.71479984     0.06500
C484        C  0.52462524  0.84415676  0.71608002     0.26100
C485        C  0.52310681  0.82193214  0.73708043    -0.11600
C486        C  0.49964681  0.82072975  0.75700068    -0.25600
C487        C  0.47902853  0.84367232  0.75745192     0.36900
C488        C  0.50091709  0.88572164  0.68904646     0.06500
F489        F  0.54593319  0.84266357  0.69526199    -0.19400
H490        H  0.53900998  0.80422972  0.73627151     0.16300
F491        F  0.45564669  0.84270115  0.77590606    -0.23100
H492        H  0.46371317  0.88288875  0.73616647     0.18100
C493        C  0.47478444  0.88793129  0.67248843     0.26100
C494        C  0.47437387  0.90391524  0.64624163    -0.11600
C495        C  0.50005186  0.91750784  0.63577585    -0.25600
C496        C  0.52600302  0.91580129  0.65267800     0.37000
C497        C  0.52625277  0.90030123  0.67913405    -0.27300
F498        F  0.45004066  0.87341622  0.68084052    -0.19400
H499        H  0.45411622  0.90502319  0.63370664     0.16300
F500        F  0.55120022  0.92916939  0.64382322    -0.23100
H501        H  0.54650672  0.89920749  0.69167802     0.18100
C502        C  0.46283832  0.83736501  0.86101485    -0.27100
C503        C  0.48919586  0.85198273  0.86855001     0.06500
C504        C  0.51526039  0.84384970  0.85383359     0.26100
C505        C  0.51446991  0.82311057  0.83104477    -0.11600
C506        C  0.48812483  0.80892589  0.82350415    -0.25600
C507        C  0.46238798  0.81572509  0.83903024     0.36900
C508        C  0.48927239  0.87541033  0.89170446     0.06500
F509        F  0.54170286  0.85512325  0.86208265    -0.19400
H510        H  0.53458642  0.81746853  0.81966903     0.16300
F511        F  0.43668169  0.80203377  0.83223474    -0.23100
H512        H  0.44243031  0.84296371  0.87187678     0.18100
C513        C  0.50532849  0.90177049  0.88806802     0.26100
C514        C  0.50572135  0.92315334  0.91025356    -0.11600
C515        C  0.48907533  0.91953059  0.93598988    -0.25600
C516        C  0.47221482  0.89372146  0.93924457     0.37000
C517        C  0.47264532  0.87181705  0.91753557    -0.27300
F518        F  0.51984476  0.90747351  0.86266014    -0.19400
H519        H  0.51874833  0.94289572  0.90713106     0.16300
F520        F  0.45519605  0.88976057  0.96341176    -0.23100
H521        H  0.45997451  0.85191988  0.92102431     0.18100
C522        C  0.47891321  0.10761922  0.66811309    -0.27100
C523        C  0.50015857  0.10214406  0.68993333     0.06500
C524        C  0.52229858  0.08126646  0.68428899     0.26100
C525        C  0.52317372  0.06665918  0.65711366    -0.11600
C526        C  0.50172868  0.07223921  0.63550796    -0.25600
C527        C  0.47950539  0.09271902  0.64133051     0.36900
C528        C  0.49937630  0.11995390  0.71735051     0.06500
F529        F  0.54259683  0.07450732  0.70513487    -0.19400
H530        H  0.54016827  0.05045884  0.65322452     0.16300
F531        F  0.45873479  0.09892338  0.62079072    -0.23100
H532        H  0.46200376  0.12400249  0.67157422     0.18100
C533        C  0.52430635  0.13582481  0.72686182     0.26100
C534        C  0.52129573  0.15843807  0.74751248    -0.11600
C535        C  0.49354004  0.16575784  0.75869171    -0.25600
C536        C  0.46904988  0.14860261  0.75091708     0.37000
C537        C  0.47213052  0.12548798  0.73088675    -0.27300
F538        F  0.55089028  0.13185056  0.71395504    -0.19400
H539        H  0.54025591  0.17195295  0.75286807     0.16300
F540        F  0.44172245  0.15597999  0.76019041    -0.23100
H541        H  0.45265553  0.11347369  0.72404186     0.18100
C542        C  0.46730914  0.14309401  0.85384307    -0.27100
C543        C  0.49273880  0.13947042  0.87103703     0.06500
C544        C  0.51770757  0.15691004  0.86487273     0.26100
C545        C  0.51695045  0.17742584  0.84186183    -0.11600
C546        C  0.49140474  0.18073559  0.82486141    -0.25600
C547        C  0.46650293  0.16378577  0.83131697     0.36900
C548        C  0.49254262  0.11740643  0.89511665     0.06500
F549        F  0.54248173  0.15461791  0.88142133    -0.19400
H550        H  0.53617971  0.19074037  0.83723702     0.16300
F551        F  0.44104602  0.16798378  0.81637975    -0.23100
H552        H  0.44789779  0.12984358  0.85788206     0.18100
C553        C  0.46857204  0.11575070  0.91466896     0.26100
C554        C  0.46711638  0.09339588  0.93565995    -0.11600
C555        C  0.48956751  0.07245210  0.93772085    -0.25600
C556        C  0.51389376  0.07440719  0.91881639     0.37000
C557        C  0.51531503  0.09668886  0.89763630    -0.27300
F558        F  0.44666263  0.13596409  0.91367604    -0.19400
H559        H  0.44850308  0.09243658  0.95046179     0.16300
F560        F  0.53629349  0.05484413  0.92103111    -0.23100
H561        H  0.53387825  0.09734620  0.88276874     0.18100
C562        C  0.47494092  0.13027126  0.28772446    -0.27100
C563        C  0.49702221  0.13144496  0.30949703     0.06500
C564        C  0.51817433  0.15402251  0.30830343     0.26100
C565        C  0.51585094  0.17615266  0.28729186    -0.11600
C566        C  0.49262681  0.17622713  0.26693285    -0.25600
C567        C  0.47280043  0.15247442  0.26640239     0.36900
C568        C  0.49678805  0.11082973  0.33479026     0.06500
F569        F  0.53968374  0.15613747  0.32896510    -0.19400
H570        H  0.53125598  0.19438886  0.28804816     0.16300
F571        F  0.45016702  0.15192749  0.24689388    -0.23100
H572        H  0.45869758  0.11278811  0.28798091     0.18100
C573        C  0.47144182  0.10748652  0.35219329     0.26100
C574        C  0.47206427  0.08974494  0.37730761    -0.11600
C575        C  0.49803144  0.07537746  0.38583730    -0.25600
C576        C  0.52344004  0.07885615  0.36846914     0.37000
C577        C  0.52266324  0.09623080  0.34314016    -0.27300
F578        F  0.44640963  0.12232527  0.34561737    -0.19400
H579        H  0.45227614  0.08760448  0.39036078     0.16300
F580        F  0.54900698  0.06526093  0.37565055    -0.23100
H581        H  0.54243761  0.09847962  0.33007853     0.18100
C582        C  0.50998975  0.14444698  0.17650319    -0.27100
C583        C  0.48850425  0.14325202  0.15420203     0.06500
C584        C  0.46629045  0.16485634  0.15397152     0.26100
C585        C  0.46516387  0.18626957  0.17613755    -0.11600
C586        C  0.48637644  0.18704666  0.19864766    -0.25600
C587        C  0.50925104  0.16631787  0.19818411     0.36900
C588        C  0.48904885  0.11906660  0.13191729     0.06500
F589        F  0.44584129  0.16554618  0.13217716    -0.19400
H590        H  0.44746889  0.20216311  0.17593894     0.16300
F591        F  0.53122802  0.16747976  0.21835944    -0.23100
H592        H  0.52725656  0.12812351  0.17747949     0.18100
C593        C  0.51565733  0.10993354  0.11889160     0.26100
C594        C  0.51596462  0.08644253  0.09896019    -0.11600
C595        C  0.48975659  0.07219641  0.09086419    -0.25600
C596        C  0.46315755  0.08131828  0.10351027     0.37000
C597        C  0.46289221  0.10427373  0.12408953    -0.27300
F598        F  0.54128051  0.12424815  0.12465998    -0.19400
H599        H  0.53659845  0.07985321  0.08909654     0.16300
F600        F  0.43745183  0.06807957  0.09581373    -0.23100
H601        H  0.44217896  0.11030332  0.13410236     0.18100
C602        C  0.46888178  0.88778232  0.34844155    -0.27100
C603        C  0.49476127  0.87540376  0.33717432     0.06500
C604        C  0.52148326  0.88023182  0.35220259     0.26100
C605        C  0.52198450  0.89691620  0.37811827    -0.11600
C606        C  0.49589849  0.90880378  0.38958878    -0.25600
C607        C  0.46925705  0.90389245  0.37451704     0.36900
C608        C  0.49301891  0.85550752  0.31131828     0.06500
F609        F  0.54691690  0.86811354  0.34242161    -0.19400
H610        H  0.54278653  0.90044471  0.38926578     0.16300
F611        F  0.44347854  0.91497141  0.38460175    -0.23100
H612        H  0.44811568  0.88473798  0.33709036     0.18100
C613        C  0.47160724  0.83312267  0.31057223     0.26100
C614        C  0.47150958  0.81250945  0.28795717    -0.11600
C615        C  0.49319786  0.81303810  0.26608590    -0.25600
C616        C  0.51365203  0.83626524  0.26567514     0.37000
C617        C  0.51337936  0.85751672  0.28810776    -0.27300
F618        F  0.45232117  0.82952148  0.33304894    -0.19400
H619        H  0.45581659  0.79453039  0.28886053     0.16300
F620        F  0.53537679  0.83696236  0.24528167    -0.23100
H621        H  0.52981781  0.87481313  0.28802070     0.18100
C622        C  0.47459166  0.87598757  0.11320065    -0.27100
C623        C  0.49942655  0.87271842  0.13138887     0.06500
C624        C  0.52331169  0.89221606  0.12775581     0.26100
C625        C  0.52202872  0.91474222  0.10672741    -0.11600
C626        C  0.49711325  0.91800112  0.08874429    -0.25600
C627        C  0.47348000  0.89827390  0.09196748     0.36900
C628        C  0.50006317  0.84920714  0.15423262     0.06500
F629        F  0.54755353  0.88997567  0.14507092    -0.19400
H630        H  0.54045619  0.92972607  0.10446007     0.16300
F631        F  0.44920125  0.90081264  0.07473311    -0.23100
H632        H  0.45606694  0.86110766  0.11536443     0.18100
C633        C  0.47751471  0.84696637  0.17529527     0.26100
C634        C  0.47830251  0.82490152  0.19679881    -0.11600
C635        C  0.50138401  0.80443234  0.19764155    -0.25600
C636        C  0.52386876  0.80655431  0.17648069     0.37000
C637        C  0.52321433  0.82878017  0.15510670    -0.27300
F638        F  0.45502083  0.86654027  0.17546365    -0.19400
H639        H  0.46073470  0.82363745  0.21277866     0.16300
F640        F  0.54688031  0.78762078  0.17694128    -0.23100
H641        H  0.54076003  0.82996406  0.13907533     0.18100
C642        C  0.89864039  0.32975725  0.46833519    -0.27100
C643        C  0.88609953  0.31722623  0.49353143     0.06500
C644        C  0.89087411  0.33088368  0.52098589     0.26100
C645        C  0.90743744  0.35686408  0.52285551    -0.11600
C646        C  0.91923429  0.36980389  0.49743471    -0.25600
C647        C  0.91469572  0.35587706  0.47008850     0.36900
C648        C  0.86595495  0.29163133  0.49046168     0.06500
F649        F  0.87856925  0.31985758  0.54581508    -0.19400
H650        H  0.91067199  0.36707627  0.54416365     0.16300
F651        F  0.92570541  0.36736251  0.44487022    -0.23100
H652        H  0.89559168  0.31947912  0.44702917     0.18100
C653        C  0.84312540  0.29235860  0.46954595     0.26100
C654        C  0.82183603  0.27027994  0.46902343    -0.11600
C655        C  0.82242223  0.24730167  0.48956249    -0.25600
C656        C  0.84637950  0.24523553  0.50905674     0.37000
C657        C  0.86803816  0.26728335  0.50940212    -0.27300
F658        F  0.83979472  0.31574596  0.45131502    -0.19400
H659        H  0.80341129  0.27242315  0.45401913     0.16300
F660        F  0.84743653  0.22366603  0.52958855    -0.23100
H661        H  0.88571217  0.26603375  0.52535772     0.18100
C662        C  0.88935327  0.65946094  0.53129007    -0.27100
C663        C  0.87940893  0.67161531  0.50473953     0.06500
C664        C  0.88551713  0.65696516  0.47820046     0.26100
C665        C  0.90063975  0.63024741  0.47845589    -0.11600
C666        C  0.90988513  0.61767078  0.50510455    -0.25600
C667        C  0.90421793  0.63267097  0.53161059     0.36900
C668        C  0.85983882  0.69754818  0.50526193     0.06500
F669        F  0.87582940  0.66780435  0.45214039    -0.19400
H670        H  0.90493439  0.61929134  0.45774092     0.16300
F671        F  0.91304539  0.62165611  0.55789887    -0.23100
H672        H  0.88508359  0.67053623  0.55195602     0.18100
C673        C  0.83496112  0.69725112  0.52348077     0.26100
C674        C  0.81449154  0.71978638  0.52180558    -0.11600
C675        C  0.81783063  0.74276142  0.50150499    -0.25600
C676        C  0.84332885  0.74396175  0.48412122     0.37000
C677        C  0.86432132  0.72149994  0.48619499    -0.27300
F678        F  0.82918666  0.67401980  0.54131911    -0.19400
H679        H  0.79496454  0.71839119  0.53536382     0.16300
F680        F  0.84692927  0.76536719  0.46369504    -0.23100
H681        H  0.88347742  0.72217178  0.47209499     0.18100
C682        C  0.09914019  0.33241870  0.53014900    -0.27100
C683        C  0.11363103  0.32288815  0.50467607     0.06500
C684        C  0.10976746  0.33878881  0.47840662     0.26100
C685        C  0.09256678  0.36434726  0.47816125    -0.11600
C686        C  0.07926090  0.37461404  0.50409850    -0.25600
C687        C  0.08242562  0.35807783  0.53005914     0.36900
C688        C  0.13519327  0.29852140  0.50676798     0.06500
F689        F  0.12374452  0.33051578  0.45338486    -0.19400
H690        H  0.09022387  0.37647825  0.45782020     0.16300
F691        F  0.06948674  0.36660077  0.55553855    -0.23100
H692        H  0.10140627  0.32027950  0.55050068     0.18100
C693        C  0.15693302  0.29940516  0.52880699     0.26100
C694        C  0.17926537  0.27858377  0.52923255    -0.11600
C695        C  0.18071677  0.25657483  0.50767469    -0.25600
C696        C  0.15806029  0.25430446  0.48669520     0.37000
C697        C  0.13543580  0.27528331  0.48624013    -0.27300
F698        F  0.15799229  0.32176020  0.54864020    -0.19400
H699        H  0.19667373  0.28079333  0.54542146     0.16300
F700        F  0.15898035  0.23335820  0.46541327    -0.23100
H701        H  0.11867407  0.27396824  0.46932277     0.18100
C702        C  0.10295881  0.65766274  0.53034675    -0.27100
C703        C  0.10802900  0.67184892  0.50338471     0.06500
C704        C  0.09403161  0.66124340  0.47790986     0.26100
C705        C  0.07586031  0.63657938  0.47931745    -0.11600
C706        C  0.07123205  0.62194158  0.50608876    -0.25600
C707        C  0.08467923  0.63287892  0.53177550     0.36900
C708        C  0.13038077  0.69545121  0.50134200     0.06500
F709        F  0.09818293  0.67455977  0.45154280    -0.19400
H710        H  0.06552296  0.62884708  0.45924734     0.16300
F711        F  0.08097950  0.61918437  0.55800880    -0.23100
H712        H  0.11404438  0.66512578  0.55012067     0.18100
C713        C  0.13064612  0.71950422  0.52090462     0.26100
C714        C  0.15439427  0.73925621  0.52098467    -0.11600
C715        C  0.17797974  0.73512332  0.50157108    -0.25600
C716        C  0.17662674  0.71224716  0.48077521     0.37000
C717        C  0.15314506  0.69257134  0.48080403    -0.27300
F718        F  0.10844349  0.72331763  0.54043617    -0.19400
H719        H  0.15518894  0.75663618  0.53729904     0.16300
F720        F  0.19884454  0.70805044  0.46131734    -0.23100
H721        H  0.15353007  0.67414213  0.46566208     0.18100
C722        C  0.82969660  0.45986241  0.69704943    -0.27100
C723        C  0.85157360  0.48160176  0.69838242     0.06500
C724        C  0.85182932  0.50145437  0.72221512     0.26100
C725        C  0.82932121  0.50059472  0.74328086    -0.11600
C726        C  0.80652188  0.47980213  0.74085274    -0.25600
C727        C  0.80754126  0.45879152  0.71809980     0.36900
C728        C  0.87256451  0.48429219  0.67366422     0.06500
F729        F  0.87343155  0.52200040  0.72470130    -0.19400
H730        H  0.82885803  0.51709472  0.76048540     0.16300
F731        F  0.78626976  0.43790160  0.71547460    -0.23100
H732        H  0.82901905  0.44439031  0.67890198     0.18100
C733        C  0.88805708  0.45958131  0.66349143     0.26100
C734        C  0.90573205  0.46160539  0.63850578    -0.11600
C735        C  0.90834581  0.48827635  0.62315440    -0.25600
C736        C  0.89274981  0.51302578  0.63326679     0.37000
C737        C  0.87509150  0.51098525  0.65835390    -0.27300
F738        F  0.88624021  0.43349635  0.67787303    -0.19400
H739        H  0.91764667  0.44227330  0.63136787     0.16300
F740        F  0.89409404  0.53902883  0.61868605    -0.23100
H741        H  0.86274072  0.53007999  0.66540500     0.18100
C742        C  0.84398704  0.46947845  0.83216139    -0.27100
C743        C  0.84315628  0.49107961  0.85437167     0.06500
C744        C  0.82018272  0.51186411  0.85371533     0.26100
C745        C  0.79883171  0.51091446  0.83142927    -0.11600
C746        C  0.79934436  0.48891097  0.80965640    -0.25600
C747        C  0.82219018  0.46807548  0.81036359     0.36900
C748        C  0.86611418  0.49159013  0.87804971     0.06500
F749        F  0.81774485  0.53259142  0.87509454    -0.19400
H750        H  0.78165421  0.52735166  0.83131005     0.16300
F751        F  0.82299835  0.44571098  0.79059807    -0.23100
H752        H  0.86155422  0.45345122  0.83168938     0.18100
C753        C  0.87540519  0.46537112  0.89179463     0.26100
C754        C  0.89733766  0.46600002  0.91346758    -0.11600
C755        C  0.91023382  0.49267884  0.92222910    -0.25600
C756        C  0.90086154  0.51892867  0.90897238     0.37000
C757        C  0.87920830  0.51832688  0.88694906    -0.27300
F758        F  0.86279942  0.43913978  0.88487777    -0.19400
H759        H  0.90409840  0.44561887  0.92374514     0.16300
F760        F  0.91279370  0.54508383  0.91726301    -0.23100
H761        H  0.87295683  0.53880475  0.87658061     0.18100
C762        C  0.12931702  0.48780498  0.72743352    -0.27100
C763        C  0.12960998  0.50893462  0.70489577     0.06500
C764        C  0.15021914  0.53203856  0.70617809     0.26100
C765        C  0.17118787  0.53284877  0.72853702    -0.11600
C766        C  0.17232512  0.51054365  0.74977901    -0.25600
C767        C  0.15062671  0.48845888  0.74970363     0.36900
C768        C  0.10983923  0.50599404  0.67911429     0.06500
F769        F  0.15171791  0.55246226  0.68448023    -0.19400
H770        H  0.18793747  0.54986264  0.72808636     0.16300
F771        F  0.15161764  0.46606297  0.76935556    -0.23100
H772        H  0.11337448  0.47004704  0.72702958     0.18100
C773        C  0.10817462  0.47949906  0.66306944     0.26100
C774        C  0.09075875  0.47768120  0.63768912    -0.11600
C775        C  0.07510675  0.50231841  0.62767364    -0.25600
C776        C  0.07689663  0.52880155  0.64379295     0.37000
C777        C  0.09387272  0.53042705  0.66931586    -0.27300
F778        F  0.12420394  0.45572529  0.67129858    -0.19400
H779        H  0.08983472  0.45710769  0.62565062     0.16300
F780        F  0.06201729  0.55318167  0.63521966    -0.23100
H781        H  0.09467308  0.55096512  0.68143403     0.18100
C782        C  0.10174665  0.51948471  0.89820335    -0.27100
C783        C  0.10956302  0.49421965  0.88209218     0.06500
C784        C  0.09445933  0.46764116  0.88774988     0.26100
C785        C  0.07210897  0.46661099  0.90891898    -0.11600
C786        C  0.06439829  0.49196697  0.92470239    -0.25600
C787        C  0.07929022  0.51843962  0.91914297     0.36900
C788        C  0.13339024  0.49588051  0.85959949     0.06500
F789        F  0.10075890  0.44283195  0.87236335    -0.19400
H790        H  0.06072864  0.44604862  0.91299294     0.16300
F791        F  0.07203598  0.54326198  0.93407246    -0.23100
H792        H  0.11326011  0.54008324  0.89479310     0.18100
C793        C  0.13467157  0.51937114  0.83942835     0.26100
C794        C  0.15748338  0.52108699  0.81886720    -0.11600
C795        C  0.17923676  0.49927727  0.81755319    -0.25600
C796        C  0.17768605  0.47548222  0.83724168     0.37000
C797        C  0.15523100  0.47404962  0.85823603    -0.27300
F798        F  0.11347679  0.54034547  0.83906407    -0.19400
H799        H  0.15818845  0.53951478  0.80383631     0.16300
F800        F  0.19730138  0.45311373  0.83558210    -0.23100
H801        H  0.15500375  0.45582480  0.87352960     0.18100
C802        C  0.84613727  0.47010947  0.29437173    -0.27100
C803        C  0.85990563  0.49636264  0.30331440     0.06500
C804        C  0.85298377  0.52271950  0.28865976     0.26100
C805        C  0.83060911  0.52314588  0.26756806    -0.11600
C806        C  0.81586354  0.49715115  0.25981553    -0.25600
C807        C  0.82425409  0.47047897  0.27279773     0.36900
C808        C  0.87920983  0.49630946  0.32960095     0.06500
F809        F  0.86694362  0.54825688  0.29562465    -0.19400
H810        H  0.82360103  0.54407074  0.25871167     0.16300
F811        F  0.80944463  0.44524663  0.26647805    -0.23100
H812        H  0.85098086  0.44958164  0.30541022     0.18100
C813        C  0.87464120  0.51652382  0.35265834     0.26100
C814        C  0.89209995  0.51550570  0.37790843    -0.11600
C815        C  0.91379728  0.49389492  0.38102096    -0.25600
C816        C  0.91812117  0.47336643  0.35827533     0.37000
C817        C  0.90100934  0.47469798  0.33274603    -0.27300
F818        F  0.85261044  0.53658507  0.35131863    -0.19400
H819        H  0.88836120  0.53138320  0.39529941     0.16300
F820        F  0.93952409  0.45269229  0.36023098    -0.23100
H821        H  0.90484590  0.45888487  0.31532626     0.18100
C822        C  0.84464118  0.51619531  0.16479122    -0.27100
C823        C  0.84504545  0.49198400  0.14557547     0.06500
C824        C  0.82490378  0.46881590  0.15004846     0.26100
C825        C  0.80470288  0.47015630  0.17327133    -0.11600
C826        C  0.80434094  0.49450834  0.19232828    -0.25600
C827        C  0.82436455  0.51759062  0.18775004     0.36900
C828        C  0.86638062  0.49146466  0.12090634     0.06500
F829        F  0.82412314  0.44543163  0.13143562    -0.19400
H830        H  0.78909948  0.45237239  0.17628813     0.16300
F831        F  0.82326991  0.54222910  0.20450024    -0.23100
H832        H  0.85993839  0.53426455  0.16182909     0.18100
C833        C  0.86913825  0.51580504  0.10196877     0.26100
C834        C  0.89042731  0.51594205  0.07984592    -0.11600
C835        C  0.90918877  0.49180773  0.07609697    -0.25600
C836        C  0.90630099  0.46732007  0.09470119     0.37000
C837        C  0.88501030  0.46716603  0.11689455    -0.27300
F838        F  0.85104455  0.53935710  0.10469415    -0.19400
H839        H  0.89240597  0.53493826  0.06562910     0.16300
F840        F  0.92428461  0.44373857  0.09151275    -0.23100
H841        H  0.88349276  0.44834104  0.13138436     0.18100
C842        C  0.08865990  0.47911097  0.33484077    -0.27100
C843        C  0.10671221  0.50292002  0.32728771     0.06500
C844        C  0.10878265  0.52714282  0.34663260     0.26100
C845        C  0.09304636  0.52716927  0.37314572    -0.11600
C846        C  0.07580595  0.50273677  0.38101499    -0.25600
C847        C  0.07375605  0.47872252  0.36151229     0.36900
C848        C  0.12515749  0.50095508  0.30055338     0.06500
F849        F  0.12695975  0.55009292  0.34054221    -0.19400
H850        H  0.09492139  0.54587219  0.38784492     0.16300
F851        F  0.05689493  0.45489380  0.36788568    -0.23100
H852        H  0.08643002  0.46043257  0.32015591     0.18100
C853        C  0.14276565  0.47594885  0.29583350     0.26100
C854        C  0.16344608  0.47577731  0.27332551    -0.11600
C855        C  0.16667999  0.50022917  0.25499116    -0.25600
C856        C  0.14729311  0.52403337  0.25767710     0.37000
C857        C  0.12672194  0.52446471  0.28054826    -0.27300
F858        F  0.14187767  0.45271311  0.31452422    -0.19400
H859        H  0.17849966  0.45741154  0.27155973     0.16300
F860        F  0.15005924  0.54785529  0.23992734    -0.23100
H861        H  0.11287225  0.54360895  0.28338545     0.18100
C862        C  0.10022700  0.47359902  0.10789616    -0.27100
C863        C  0.10688496  0.50042280  0.12197332     0.06500
C864        C  0.09106848  0.52579946  0.11366227     0.26100
C865        C  0.06956546  0.52421718  0.09158205    -0.11600
C866        C  0.06284435  0.49728201  0.07795272    -0.25600
C867        C  0.07816590  0.47192501  0.08648489     0.36900
C868        C  0.13051253  0.50170359  0.14483525     0.06500
F869        F  0.09583778  0.55199888  0.12728288    -0.19400
H870        H  0.05783157  0.54395603  0.08531332     0.16300
F871        F  0.07198912  0.44558177  0.07374628    -0.23100
H872        H  0.11237197  0.45384866  0.11319414     0.18100
C873        C  0.13318538  0.47953080  0.16636304     0.26100
C874        C  0.15575716  0.48079623  0.18732566    -0.11600
C875        C  0.17595548  0.50418680  0.18750056    -0.25600
C876        C  0.17333002  0.52636159  0.16620791     0.37000
C877        C  0.15101201  0.52497990  0.14499758    -0.27300
F878        F  0.11358404  0.45698180  0.16768762    -0.19400
H879        H  0.15745770  0.46352391  0.20359766     0.16300
F880        F  0.19184607  0.54982316  0.16646228    -0.23100
H881        H  0.14993751  0.54210210  0.12852253     0.18100
C882        C  0.45963371  0.29804650  0.16570061    -0.27100
C883        C  0.48356801  0.29729829  0.14628475     0.06500
C884        C  0.50409119  0.27428843  0.14860369     0.26100
C885        C  0.50128410  0.25320824  0.17091136    -0.11600
C886        C  0.47812315  0.25497864  0.19121280    -0.25600
C887        C  0.45689061  0.27715820  0.18793304     0.36900
C888        C  0.48720897  0.32147856  0.12475477     0.06500
F889        F  0.52711020  0.27258958  0.12973866    -0.19400
H890        H  0.51813168  0.23658580  0.17337437     0.16300
F891        F  0.43414032  0.27938604  0.20710125    -0.23100
H892        H  0.44362593  0.31561482  0.16438987     0.18100
C893        C  0.46371313  0.32935108  0.10632994     0.26100
C894        C  0.46564575  0.35436779  0.08870386    -0.11600
C895        C  0.49116118  0.37191709  0.08873942    -0.25600
C896        C  0.51514514  0.36354235  0.10642330     0.37000
C897        C  0.51307359  0.33854988  0.12439019    -0.27300
F898        F  0.43878924  0.31282602  0.10547866    -0.19400
H899        H  0.44705415  0.35996506  0.07488756     0.16300
F900        F  0.54005992  0.38006118  0.10722044    -0.23100
H901        H  0.53128965  0.33306638  0.13874570     0.18100
C902        C  0.47488667  0.65217172  0.12230686    -0.27100
C903        C  0.50138137  0.66816850  0.12339677     0.06500
C904        C  0.52549183  0.65842087  0.10683000     0.26100
C905        C  0.52325838  0.63295121  0.08983856    -0.11600
C906        C  0.49691797  0.61671943  0.08884513    -0.25600
C907        C  0.47259933  0.62660726  0.10516782     0.36900
C908        C  0.50487343  0.69306898  0.14412262     0.06500
F909        F  0.55127275  0.67358484  0.10711415    -0.19400
H910        H  0.54222521  0.62606913  0.07723286     0.16300
F911        F  0.44695909  0.61121972  0.10522434    -0.23100
H912        H  0.45626016  0.65899110  0.13545108     0.18100
C913        C  0.48493894  0.71671638  0.14472742     0.26100
C914        C  0.48706451  0.73818458  0.16683042    -0.11600
C915        C  0.50895386  0.73610032  0.18852586    -0.25600
C916        C  0.52986772  0.71344562  0.18674160     0.37000
C917        C  0.52775004  0.69215963  0.16481387    -0.27300
F918        F  0.46297175  0.71851166  0.12455886    -0.19400
H919        H  0.47047870  0.75519538  0.16816170     0.16300
F920        F  0.55132133  0.71085731  0.20740538    -0.23100
H921        H  0.54321777  0.67406490  0.16487993     0.18100
C922        C  0.49873676  0.71834160  0.87261797    -0.27100
C923        C  0.47683290  0.69639493  0.87208496     0.06500
C924        C  0.45363378  0.69886588  0.85161118     0.26100
C925        C  0.45394529  0.72128662  0.83068958    -0.11600
C926        C  0.47724690  0.74153016  0.82968517    -0.25600
C927        C  0.49923400  0.74050053  0.85135014     0.36900
C928        C  0.47969416  0.66982890  0.89095821     0.06500
F929        F  0.43201657  0.67824934  0.85001199    -0.19400
H930        H  0.43702866  0.72159328  0.81386261     0.16300
F931        F  0.52280712  0.75883140  0.85012965    -0.23100
H932        H  0.51643464  0.71741569  0.88856378     0.18100
C933        C  0.50688212  0.65516504  0.89374608     0.26100
C934        C  0.50917632  0.62960464  0.91067471    -0.11600
C935        C  0.48438522  0.61770765  0.92459787    -0.25600
C936        C  0.45708489  0.63211661  0.92146245     0.37000
C937        C  0.45498005  0.65806320  0.90520404    -0.27300
F938        F  0.53111522  0.66490705  0.87931790    -0.19400
H939        H  0.53034767  0.61889358  0.91256859     0.16300
F940        F  0.43233461  0.62147128  0.93433175    -0.23100
H941        H  0.43389249  0.66900234  0.90382363     0.18100
C942        C  0.65216014  0.46961388  0.89440817    -0.27100
C943        C  0.66714147  0.49625550  0.88953100     0.06500
C944        C  0.65658673  0.52202920  0.90305225     0.26100
C945        C  0.63097253  0.52123703  0.92002826    -0.11600
C946        C  0.61552714  0.49472337  0.92424540    -0.25600
C947        C  0.62675737  0.46874005  0.91172983     0.36900
C948        C  0.69146718  0.49751297  0.86773947     0.06500
F949        F  0.67098056  0.54803636  0.89974829    -0.19400
H950        H  0.62323585  0.54148648  0.92990071     0.16300
F951        F  0.61282142  0.44257729  0.91550371    -0.23100
H952        H  0.65950173  0.44954584  0.88388605     0.18100
C953        C  0.71409583  0.47632604  0.86721382     0.26100
C954        C  0.73395881  0.47534556  0.84363916    -0.11600
C955        C  0.73143089  0.49540571  0.82037292    -0.25600
C956        C  0.70998981  0.51756633  0.82184255     0.37000
C957        C  0.69028271  0.51856325  0.84523590    -0.27300
F958        F  0.71636564  0.45601853  0.88893202    -0.19400
H959        H  0.75014148  0.45792248  0.84270028     0.16300
F960        F  0.70705630  0.53733811  0.79968740    -0.23100
H961        H  0.67293241  0.53484011  0.84479627     0.18100
C962        C  0.51451421  0.29179783  0.85381868    -0.27100
C963        C  0.49305369  0.29060252  0.87586065     0.06500
C964        C  0.47262409  0.26723590  0.87586487     0.26100
C965        C  0.47284577  0.24637100  0.85306374    -0.11600
C966        C  0.49329881  0.24886541  0.83011267    -0.25600
C967        C  0.51471394  0.27115611  0.83122090     0.36900
C968        C  0.49101640  0.31545684  0.89678698     0.06500
F969        F  0.45214869  0.26506905  0.89743768    -0.19400
H970        H  0.45618744  0.22928855  0.85251198     0.16300
F971        F  0.53526864  0.27359538  0.80974598    -0.23100
H972        H  0.53036342  0.30964264  0.85329559     0.18100
C973        C  0.51624032  0.32554139  0.91164686     0.26100
C974        C  0.51555290  0.35194856  0.92729065    -0.11600
C975        C  0.48967622  0.36871730  0.92864322    -0.25600
C976        C  0.46411185  0.35815112  0.91462825     0.37000
C977        C  0.46486272  0.33172261  0.89878984    -0.27300
F978        F  0.54171000  0.31004296  0.91060615    -0.19400
H979        H  0.53540114  0.35928109  0.93834526     0.16300
F980        F  0.43874972  0.37382626  0.91528134    -0.23100
H981        H  0.44535067  0.32460214  0.88701494     0.18100
C982        C  0.33145727  0.51790982  0.89553275    -0.27100
C983        C  0.31386885  0.49244487  0.89471572     0.06500
C984        C  0.32246747  0.46771086  0.91106963     0.26100
C985        C  0.34843677  0.46838808  0.92752841    -0.11600
C986        C  0.36615643  0.49378016  0.92819494    -0.25600
C987        C  0.35730559  0.51869687  0.91221551     0.36900
C988        C  0.28837064  0.49098761  0.87448208     0.06500
F989        F  0.30569491  0.44293857  0.91119198    -0.19400
H990        H  0.35454532  0.44905044  0.93998470     0.16300
F991        F  0.37399827  0.54351021  0.91199057    -0.23100
H992        H  0.32560935  0.53696716  0.88252476     0.18100
C993        C  0.26741211  0.51373765  0.87343132     0.26100
C994        C  0.24659833  0.51451399  0.85072035    -0.11600
C995        C  0.24675340  0.49281627  0.82880658    -0.25600
C996        C  0.26628538  0.46906543  0.83101068     0.37000
C997        C  0.28683156  0.46812254  0.85374858    -0.27300
F998        F  0.26800077  0.53587351  0.89350672    -0.19400
H999        H  0.23185686  0.53312585  0.84902406     0.16300
F1000       F  0.26674076  0.44782018  0.80997335    -0.23100
H1001       H  0.30285998  0.45053189  0.85395852     0.18100
C1002       C  0.32722909  0.47759050  0.11423373    -0.27100
C1003       C  0.31151679  0.50421442  0.11367622     0.06500
C1004       C  0.32253743  0.52780432  0.09700520     0.26100
C1005       C  0.34938596  0.52517382  0.08250337    -0.11600
C1006       C  0.36546124  0.49882423  0.08373426    -0.25600
C1007       C  0.35376573  0.47472960  0.09906238     0.36900
C1008       C  0.28572482  0.50819781  0.13313316     0.06500
F1009       F  0.30747542  0.55348300  0.09488734    -0.19400
H1010       H  0.35753787  0.54384927  0.07016968     0.16300
F1011       F  0.36841098  0.44878367  0.10027704    -0.23100
H1012       H  0.31955068  0.45926461  0.12734367     0.18100
C1013       C  0.26421388  0.48602285  0.13623579     0.26100
C1014       C  0.24319701  0.48797351  0.15857902    -0.11600
C1015       C  0.24355831  0.51189975  0.17805137    -0.25600
C1016       C  0.26362223  0.53496327  0.17368529     0.37000
C1017       C  0.28447815  0.53311753  0.15141337    -0.27300
F1018       F  0.26438501  0.46187737  0.11861775    -0.19400
H1019       H  0.22802707  0.46986938  0.16196430     0.16300
F1020       F  0.26423831  0.55840487  0.19224585    -0.23100
H1021       H  0.30095431  0.55030038  0.14986538     0.18100
C1022       C  0.71870529  0.51252431  0.13802969    -0.27100
C1023       C  0.69568558  0.49171297  0.13752352     0.06500
C1024       C  0.69434544  0.47037456  0.15989516     0.26100
C1025       C  0.71461824  0.47081365  0.18283954    -0.11600
C1026       C  0.73648302  0.49252108  0.18422988    -0.25600
C1027       C  0.73895082  0.51305524  0.16133455     0.36900
C1028       C  0.67164900  0.49340070  0.11541604     0.06500
F1029       F  0.67211704  0.45038567  0.16091050    -0.19400
H1030       H  0.71232133  0.45498041  0.20047954     0.16300
F1031       F  0.75939988  0.53484341  0.16259714    -0.23100
H1032       H  0.72040008  0.52897466  0.12092320     0.18100
C1033       C  0.65706759  0.52011861  0.10976450     0.26100
C1034       C  0.63142436  0.52041799  0.09269256    -0.11600
C1035       C  0.61971849  0.49416784  0.08119221    -0.25600
C1036       C  0.63513125  0.46769856  0.08564929     0.37000
C1037       C  0.66096015  0.46750078  0.10226581    -0.27300
F1038       F  0.66656137  0.54570353  0.12202253    -0.19400
H1039       H  0.62023610  0.54113524  0.08921637     0.16300
F1040       F  0.62522656  0.44185100  0.07428691    -0.23100
H1041       H  0.67221035  0.44679089  0.10560672     0.18100
loop_ 
_geom_bond_atom_site_label_1 
_geom_bond_atom_site_label_2 
_geom_bond_distance 
_geom_bond_site_symmetry_2 
_ccdc_geom_bond_type 
N1            N2   1.322       .  A
N1            N7   1.317       .  A
N1          Mn30   2.211       .  S
N2            C9   1.354       .  A
N3            N5   1.318       .  A
N3            N4   1.322       .  A
N3          Mn19   2.218   1_556  S
N4           C10   1.354       .  A
N5            N6   1.320       .  A
N5          Mn30   2.196   1_556  S
N6           C10   1.352       .  A
N7            N8   1.318       .  A
N7          Mn19   2.189       .  S
N8            C9   1.350       .  A
C9         C1035   1.479       .  S
C10         C946   1.484       .  S
N11          N17   1.317       .  A
N11          N12   1.321       .  A
N11         Mn41   2.204   1_556  S
N12          C20   1.353       .  A
N13          N14   1.324       .  A
N13          N15   1.317       .  A
N13         Mn19   2.221       .  S
N14          C21   1.356       .  A
N15          N16   1.318       .  A
N15         Mn41   2.193       .  S
N16          C21   1.351       .  A
N17          N18   1.318       .  A
N17         Mn19   2.191   1_556  S
N18          C20   1.351       .  A
Mn19        Cl43   2.541       .  S
C20         C975   1.476       .  S
C21         C895   1.481       .  S
N22          N23   1.325       .  A
N22          N28   1.315       .  A
N22         Mn30   2.224   1_556  S
N23          C31   1.359       .  A
N24          N26   1.316       .  A
N24          N25   1.322       .  A
N24         Mn42   2.207       .  S
N25          C32   1.355       .  A
N26          N27   1.317       .  A
N26         Mn30   2.191       .  S
N27          C32   1.351       .  A
N28          N29   1.315       .  A
N28         Mn42   2.174   1_556  S
N29          C31   1.347       .  A
Mn30        Cl43   2.551       .  S
C31         C935   1.482       .  S
C32         C906   1.478       .  S
N33          N34   1.322       .  A
N33          N39   1.316       .  A
N33         Mn41   2.208       .  S
N34          C44   1.355       .  A
N35          N36   1.321       .  A
N35          N37   1.316       .  A
N35         Mn42   2.204   1_556  S
N36          C45   1.353       .  A
N37          N38   1.319       .  A
N37         Mn41   2.193   1_556  S
N38          C45   1.352       .  A
N39          N40   1.316       .  A
N39         Mn42   2.175       .  S
N40          C44   1.347       .  A
Mn41        Cl43   2.549       .  S
Mn42        Cl43   2.535       .  S
C44        C1006   1.474       .  S
C45         C986   1.477       .  S
N46          C50   1.354       .  A
N46          C47   1.356       .  A
N46         C875   1.442       .  S
C47        C1015   1.469       .  S
C47          C48   1.382       .  A
C48          C49   1.369       .  A
C48          H51   1.082       .  S
C49          C50   1.380       .  A
C49          H52   1.082       .  S
C50         C855   1.466       .  S
N53          C57   1.356       .  A
N53          C54   1.355       .  A
N53         C826   1.440       .  S
C54        C1026   1.473       .  S
C54          C55   1.383       .  A
C55          C56   1.371       .  A
C55          H58   1.082       .  S
C56          C57   1.380       .  A
C56          H59   1.082       .  S
C57         C806   1.468       .  S
N60          C64   1.358       .  A
N60          C61   1.360       .  A
N60         C795   1.446       .  S
C61         C766   1.475       .  S
C61          C62   1.383       .  A
C62          C63   1.367       .  A
C62          H65   1.082       .  S
C63          C64   1.380       .  A
C63          H66   1.082       .  S
C64         C995   1.469       .  S
N67          C71   1.363       .  A
N67          C68   1.365       .  A
N67         C746   1.450       .  S
C68         C726   1.481       .  S
C68          C69   1.383       .  A
C69          C70   1.365       .  A
C69          H72   1.082       .  S
C70          C71   1.381       .  A
C70          H73   1.082       .  S
C71         C955   1.479       .  S
N74          C79   1.354   1_655  A
N74          C78   1.356       .  A
N74         H106   1.032       .  S
N75          C82   1.354       .  A
N75          C83   1.353   1_556  A
N76          C81   1.355   1_655  A
N76          C80   1.353       .  A
N76         H107   1.032       .  S
N77          C84   1.353   1_554  A
N77          C85   1.354       .  A
C78          C86   1.387       .  A
C78          C94   1.421       .  A
C79          C95   1.420       .  A
C79          C87   1.387       .  A
C80          C88   1.387       .  A
C80          C97   1.419       .  A
C81          C96   1.421       .  A
C81          C89   1.388       .  A
C82          C94   1.419       .  A
C82          C90   1.386       .  A
C83          C97   1.419       .  A
C83          C91   1.387       .  A
C84          C92   1.386       .  A
C84          C95   1.418       .  A
C85          C93   1.387       .  A
C85          C96   1.420       .  A
C86          C87   1.376   1_655  A
C86          H98   1.082       .  S
C87          H99   1.082       .  S
C88          C89   1.374   1_655  A
C88         H100   1.082       .  S
C89         H101   1.082       .  S
C90          C91   1.371   1_556  A
C90         H102   1.082       .  S
C91         H103   1.082       .  S
C92          C93   1.371   1_556  A
C92         H104   1.082       .  S
C93         H105   1.082       .  S
C94         C755   1.492       .  S
C95         C786   1.488       .  S
C96         C866   1.491       .  S
C97         C835   1.488       .  S
N108        N109   1.322       .  A
N108        N114   1.315       .  A
N108       Mn137   2.202   1_455  S
N109        C116   1.355       .  A
N110        N112   1.316       .  A
N110        N111   1.320       .  A
N110       Mn126   2.198       .  S
N111        C117   1.353       .  A
N112        N113   1.318       .  A
N112       Mn137   2.190       .  S
N113        C117   1.351       .  A
N114        N115   1.315       .  A
N114       Mn126   2.181   1_455  S
N115        C116   1.350       .  A
C116        C706   1.474       .  S
C117        C666   1.477       .  S
N118        N124   1.315       .  A
N118        N119   1.320       .  A
N118       Mn148   2.201       .  S
N119        C127   1.353       .  A
N120        N121   1.324       .  A
N120        N122   1.316       .  A
N120       Mn126   2.207   1_455  S
N121        C128   1.355       .  A
N122        N123   1.316       .  A
N122       Mn148   2.192   1_455  S
N123        C128   1.350       .  A
N124        N125   1.319       .  A
N124       Mn126   2.188       .  S
N125        C127   1.351       .  A
Mn126      Cl150   2.543       .  S
C127        C815   1.471       .  S
C128        C846   1.477       .  S
N129        N130   1.320       .  A
N129        N135   1.316       .  A
N129       Mn137   2.200       .  S
N130        C138   1.353       .  A
N131        N133   1.316       .  A
N131        N132   1.323       .  A
N131       Mn149   2.212   1_455  S
N132        C139   1.356       .  A
N133        N134   1.316       .  A
N133       Mn137   2.190   1_455  S
N134        C139   1.350       .  A
N135        N136   1.319       .  A
N135       Mn149   2.199       .  S
N136        C138   1.353       .  A
Mn137      Cl150   2.538       .  S
C138        C735   1.479       .  S
C139        C775   1.480       .  S
N140        N141   1.322       .  A
N140        N146   1.317       .  A
N140       Mn148   2.202   1_455  S
N141        C151   1.353       .  A
N142        N143   1.322       .  A
N142        N144   1.316       .  A
N142       Mn149   2.207       .  S
N143        C152   1.355       .  A
N144        N145   1.316       .  A
N144       Mn148   2.190       .  S
N145        C152   1.350       .  A
N146        N147   1.318       .  A
N146       Mn149   2.199   1_455  S
N147        C151   1.352       .  A
Mn148      Cl150   2.536       .  S
Mn149      Cl150   2.548       .  S
C151        C686   1.481       .  S
C152        C646   1.479       .  S
N153        C157   1.362       .  A
N153        C154   1.362       .  A
N153        C635   1.448       .  S
C154        C615   1.476       .  S
C154        C155   1.382       .  A
C155        C156   1.363       .  A
C155        H158   1.083       .  S
C156        C157   1.381       .  A
C156        H159   1.082       .  S
C157        C915   1.474       .  S
N160        C164   1.361       .  A
N160        C161   1.361       .  A
N160        C586   1.445       .  S
C161        C886   1.478       .  S
C161        C162   1.382       .  A
C162        C163   1.367       .  A
C162        H165   1.082       .  S
C163        C164   1.381       .  A
C163        H166   1.082       .  S
C164        C566   1.477       .  S
N167        C171   1.354       .  A
N167        C168   1.354       .  A
N167        C546   1.435       .  S
C168        C966   1.475       .  S
C168        C169   1.384       .  A
C169        C170   1.373       .  A
C169        H172   1.082       .  S
C170        C171   1.380       .  A
C170        H173   1.082       .  S
C171        C535   1.471       .  S
N174        C178   1.356       .  A
N174        C175   1.356       .  A
N174        C506   1.439       .  S
C175        C486   1.474       .  S
C175        C176   1.382       .  A
C176        C177   1.370       .  A
C176        H179   1.082       .  S
C177        C178   1.382       .  A
C177        H180   1.082       .  S
C178        C926   1.473       .  S
N181        C186   1.353       .  A
N181        C185   1.354   1_554  A
N181        H213   1.037       .  S
N182        C189   1.351   1_565  A
N182        C190   1.352       .  A
N183        C188   1.355       .  A
N183        C187   1.355   1_554  A
N183        H214   1.039       .  S
N184        C191   1.354   1_565  A
N184        C192   1.353       .  A
C185        C193   1.386       .  A
C185        C201   1.414       .  A
C186        C202   1.417       .  A
C186        C194   1.389       .  A
C187        C195   1.387       .  A
C187        C204   1.419       .  A
C188        C203   1.417       .  A
C188        C196   1.386       .  A
C189        C201   1.411       .  A
C189        C197   1.385       .  A
C190        C204   1.417       .  A
C190        C198   1.388       .  A
C191        C199   1.387       .  A
C191        C202   1.418       .  A
C192        C200   1.386       .  A
C192        C203   1.417       .  A
C193        C194   1.373   1_556  A
C193        H205   1.082       .  S
C194        H206   1.081       .  S
C195        C196   1.377   1_556  A
C195        H207   1.082       .  S
C196        H208   1.082       .  S
C197        C198   1.374   1_545  A
C197        H209   1.082       .  S
C198        H210   1.082       .  S
C199        C200   1.375   1_545  A
C199        H211   1.082       .  S
C200        H212   1.082       .  S
C201        C555   1.486       .  S
C202        C595   1.489       .  S
C203        C626   1.493       .  S
C204        C515   1.498       .  S
N215        C219   1.360       .  A
N215        C216   1.360       .  A
N215        C466   1.445       .  S
C216        C715   1.475       .  S
C216        C217   1.383       .  A
C217        C218   1.368       .  A
C217        H220   1.082       .  S
C218        C219   1.381       .  A
C218        H221   1.082       .  S
C219        C446   1.475       .  S
N222        C226   1.359       .  A
N222        C223   1.358       .  A
N222        C426   1.441       .  S
C223        C406   1.474       .  S
C223        C224   1.381       .  A
C224        C225   1.367       .  A
C224        H227   1.082       .  S
C225        C226   1.383       .  A
C225        H228   1.082       .  S
C226        C655   1.478       .  S
N229        C233   1.360       .  A
N229        C230   1.359       .  A
N229        C395   1.444       .  S
C230        C695   1.476       .  S
C230        C231   1.382       .  A
C231        C232   1.367       .  A
C231        H234   1.082       .  S
C232        C233   1.381       .  A
C232        H235   1.082       .  S
C233        C366   1.474       .  S
N236        C240   1.361       .  A
N236        C237   1.357       .  A
N236        C355   1.445       .  S
C237        C326   1.468       .  S
C237        C238   1.379       .  A
C238        C239   1.365       .  A
C238        H241   1.083       .  S
C239        C240   1.385       .  A
C239        H242   1.082       .  S
C240        C675   1.476       .  S
N243        C248   1.355       .  A
N243        C247   1.355   1_565  A
N243        H275   1.038       .  S
N244        C251   1.354   1_455  A
N244        C252   1.354       .  A
N245        C250   1.356       .  A
N245        C249   1.356   1_565  A
N245        H276   1.033       .  S
N246        C253   1.354   1_455  A
N246        C254   1.353       .  A
C247        C255   1.387       .  A
C247        C263   1.420       .  A
C248        C264   1.416       .  A
C248        C256   1.385       .  A
C249        C257   1.386       .  A
C249        C266   1.422       .  A
C250        C265   1.424       .  A
C250        C258   1.389       .  A
C251        C263   1.420       .  A
C251        C259   1.387       .  A
C252        C266   1.416       .  A
C252        C260   1.385       .  A
C253        C261   1.384       .  A
C253        C264   1.415       .  A
C254        C262   1.389       .  A
C254        C265   1.421       .  A
C255        C256   1.375   1_545  A
C255        H267   1.082       .  S
C256        H268   1.082       .  S
C257        C258   1.378   1_545  A
C257        H269   1.082       .  S
C258        H270   1.082       .  S
C259        C260   1.374   1_655  A
C259        H271   1.082       .  S
C260        H272   1.082       .  S
C261        C262   1.372   1_655  A
C261        H273   1.082       .  S
C262        H274   1.081       .  S
C263        C435   1.504       .  S
C264        C346   1.494       .  S
C265        C475   1.493       .  S
C266        C386   1.494       .  S
N277        N278   1.323       .  A
N277        N283   1.316       .  A
N277       Mn306   2.204       .  S
N278        C285   1.354       .  A
N279        N281   1.317       .  A
N279        N280   1.322       .  A
N279       Mn295   2.205   1_545  S
N280        C286   1.354       .  A
N281        N282   1.318       .  A
N281       Mn306   2.201   1_545  S
N282        C286   1.352       .  A
N283        N284   1.315       .  A
N283       Mn295   2.181       .  S
N284        C285   1.348       .  A
C285        C335   1.474       .  S
C286        C415   1.479       .  S
N287        N293   1.315       .  A
N287        N288   1.322       .  A
N287       Mn317   2.209   1_545  S
N288        C296   1.355       .  A
N289        N290   1.321       .  A
N289        N291   1.315       .  A
N289       Mn295   2.197       .  S
N290        C297   1.353       .  A
N291        N292   1.317       .  A
N291       Mn317   2.193       .  S
N292        C297   1.352       .  A
N293        N294   1.320       .  A
N293       Mn295   2.194   1_545  S
N294        C296   1.352       .  A
Mn295      Cl319   2.542       .  S
C296        C575   1.482       .  S
C297        C606   1.477       .  S
N298        N299   1.321       .  A
N298        N304   1.317       .  A
N298       Mn306   2.197   1_545  S
N299        C307   1.351       .  A
N300        N302   1.318       .  A
N300        N301   1.322       .  A
N300       Mn318   2.209       .  S
N301        C308   1.354       .  A
N302        N303   1.318       .  A
N302       Mn306   2.194       .  S
N303        C308   1.351       .  A
N304        N305   1.319       .  A
N304       Mn318   2.202   1_545  S
N305        C307   1.352       .  A
Mn306      Cl319   2.544       .  S
C307        C526   1.473       .  S
C308        C495   1.478       .  S
N309        N310   1.322       .  A
N309        N315   1.316       .  A
N309       Mn317   2.207       .  S
N310        C320   1.354       .  A
N311        N312   1.323       .  A
N311        N313   1.316       .  A
N311       Mn318   2.213   1_545  S
N312        C321   1.356       .  A
N313        N314   1.317       .  A
N313       Mn317   2.190   1_545  S
N314        C321   1.350       .  A
N315        N316   1.319       .  A
N315       Mn318   2.199       .  S
N316        C320   1.352       .  A
Mn317      Cl319   2.541       .  S
Mn318      Cl319   2.544       .  S
C320        C455   1.480       .  S
C321        C375   1.480       .  S
C322        C323   1.406       .  A
C322        C327   1.400       .  A
C322        H332   1.083       .  S
C323        C328   1.479       .  S
C323        C324   1.408       .  A
C324        C325   1.390       .  A
C324        F329   1.358       .  S
C325        C326   1.398       .  A
C325        H330   1.084       .  S
C326        C327   1.405       .  A
C327        F331   1.357       .  S
C328        C333   1.410       .  A
C328        C337   1.400       .  A
C333        C334   1.401       .  A
C333        F338   1.357       .  S
C334        C335   1.403       .  A
C334        H339   1.083       .  S
C335        C336   1.408       .  A
C336        C337   1.391       .  A
C336        F340   1.357       .  S
C337        H341   1.083       .  S
C342        C343   1.406       .  A
C342        C347   1.403       .  A
C342        H352   1.083       .  S
C343        C348   1.485       .  S
C343        C344   1.406       .  A
C344        C345   1.401       .  A
C344        F349   1.357       .  S
C345        C346   1.404       .  A
C345        H350   1.083       .  S
C346        C347   1.407       .  A
C347        F351   1.357       .  S
C348        C353   1.405       .  A
C348        C357   1.406       .  A
C353        C354   1.400       .  A
C353        F358   1.358       .  S
C354        C355   1.406       .  A
C354        H359   1.083       .  S
C355        C356   1.406       .  A
C356        C357   1.403       .  A
C356        F360   1.356       .  S
C357        H361   1.083       .  S
C362        C363   1.408       .  A
C362        C367   1.403       .  A
C362        H372   1.083       .  S
C363        C368   1.485       .  S
C363        C364   1.408       .  A
C364        C365   1.392       .  A
C364        F369   1.358       .  S
C365        C366   1.401       .  A
C365        H370   1.084       .  S
C366        C367   1.405       .  A
C367        F371   1.357       .  S
C368        C373   1.409       .  A
C368        C377   1.403       .  A
C373        C374   1.402       .  A
C373        F378   1.357       .  S
C374        C375   1.405       .  A
C374        H379   1.083       .  S
C375        C376   1.409       .  A
C376        C377   1.393       .  A
C376        F380   1.357       .  S
C377        H381   1.083       .  S
C382        C383   1.407       .  A
C382        C387   1.402       .  A
C382        H392   1.083       .  S
C383        C388   1.495       .  S
C383        C384   1.411       .  A
C384        C385   1.403       .  A
C384        F389   1.358       .  S
C385        C386   1.404       .  A
C385        H390   1.083       .  S
C386        C387   1.404       .  A
C387        F391   1.357       .  S
C388        C393   1.410       .  A
C388        C397   1.407       .  A
C393        C394   1.403       .  A
C393        F398   1.357       .  S
C394        C395   1.403       .  A
C394        H399   1.083       .  S
C395        C396   1.405       .  A
C396        C397   1.401       .  A
C396        F400   1.357       .  S
C397        H401   1.083       .  S
C402        C403   1.404       .  A
C402        C407   1.393       .  A
C402        H412   1.083       .  S
C403        C408   1.483       .  S
C403        C404   1.409       .  A
C404        C405   1.401       .  A
C404        F409   1.357       .  S
C405        C406   1.402       .  A
C405        H410   1.083       .  S
C406        C407   1.405       .  A
C407        F411   1.358       .  S
C408        C413   1.405       .  A
C408        C417   1.406       .  A
C413        C414   1.396       .  A
C413        F418   1.358       .  S
C414        C415   1.405       .  A
C414        H419   1.083       .  S
C415        C416   1.407       .  A
C416        C417   1.400       .  A
C416        F420   1.357       .  S
C417        H421   1.083       .  S
C422        C423   1.410       .  A
C422        C427   1.400       .  A
C422        H432   1.082       .  S
C423        C428   1.502       .  S
C423        C424   1.414       .  A
C424        C425   1.403       .  A
C424        F429   1.357       .  S
C425        C426   1.401       .  A
C425        H430   1.083       .  S
C426        C427   1.402       .  A
C427        F431   1.357       .  S
C428        C433   1.412       .  A
C428        C437   1.409       .  A
C433        C434   1.401       .  A
C433        F438   1.356       .  S
C434        C435   1.406       .  A
C434        H439   1.083       .  S
C435        C436   1.409       .  A
C436        C437   1.401       .  A
C436        F440   1.358       .  S
C437        H441   1.082       .  S
C442        C443   1.406       .  A
C442        C447   1.401       .  A
C442        H452   1.083       .  S
C443        C448   1.481       .  S
C443        C444   1.405       .  A
C444        C445   1.394       .  A
C444        F449   1.358       .  S
C445        C446   1.402       .  A
C445        H450   1.084       .  S
C446        C447   1.405       .  A
C447        F451   1.357       .  S
C448        C453   1.407       .  A
C448        C457   1.402       .  A
C453        C454   1.400       .  A
C453        F458   1.358       .  S
C454        C455   1.404       .  A
C454        H459   1.083       .  S
C455        C456   1.409       .  A
C456        C457   1.397       .  A
C456        F460   1.357       .  S
C457        H461   1.083       .  S
C462        C463   1.408       .  A
C462        C467   1.402       .  A
C462        H472   1.083       .  S
C463        C468   1.493       .  S
C463        C464   1.409       .  A
C464        C465   1.399       .  A
C464        F469   1.357       .  S
C465        C466   1.404       .  A
C465        H470   1.083       .  S
C466        C467   1.407       .  A
C467        F471   1.356       .  S
C468        C473   1.410       .  A
C468        C477   1.407       .  A
C473        C474   1.402       .  A
C473        F478   1.357       .  S
C474        C475   1.404       .  A
C474        H479   1.083       .  S
C475        C476   1.405       .  A
C476        C477   1.399       .  A
C476        F480   1.357       .  S
C477        H481   1.083       .  S
C482        C483   1.407       .  A
C482        C487   1.400       .  A
C482        H492   1.083       .  S
C483        C488   1.483       .  S
C483        C484   1.407       .  A
C484        C485   1.393       .  A
C484        F489   1.358       .  S
C485        C486   1.402       .  A
C485        H490   1.084       .  S
C486        C487   1.404       .  A
C487        F491   1.356       .  S
C488        C493   1.409       .  A
C488        C497   1.403       .  A
C493        C494   1.399       .  A
C493        F498   1.358       .  S
C494        C495   1.404       .  A
C494        H499   1.083       .  S
C495        C496   1.409       .  A
C496        C497   1.396       .  A
C496        F500   1.357       .  S
C497        H501   1.083       .  S
C502        C503   1.409       .  A
C502        C507   1.401       .  A
C502        H512   1.083       .  S
C503        C508   1.496       .  S
C503        C504   1.412       .  A
C504        C505   1.400       .  A
C504        F509   1.357       .  S
C505        C506   1.400       .  A
C505        H510   1.083       .  S
C506        C507   1.403       .  A
C507        F511   1.357       .  S
C508        C513   1.411       .  A
C508        C517   1.408       .  A
C513        C514   1.399       .  A
C513        F518   1.357       .  S
C514        C515   1.405       .  A
C514        H519   1.083       .  S
C515        C516   1.407       .  A
C516        C517   1.401       .  A
C516        F520   1.358       .  S
C517        H521   1.083       .  S
C522        C523   1.406       .  A
C522        C527   1.393       .  A
C522        H532   1.083       .  S
C523        C528   1.486       .  S
C523        C524   1.409       .  A
C524        C525   1.402       .  A
C524        F529   1.358       .  S
C525        C526   1.406       .  A
C525        H530   1.083       .  S
C526        C527   1.401       .  A
C527        F531   1.357       .  S
C528        C533   1.408       .  A
C528        C537   1.407       .  A
C533        C534   1.398       .  A
C533        F538   1.357       .  S
C534        C535   1.402       .  A
C534        H539   1.084       .  S
C535        C536   1.401       .  A
C536        C537   1.396       .  A
C536        F540   1.356       .  S
C537        H541   1.083       .  S
C542        C543   1.404       .  A
C542        C547   1.393       .  A
C542        H552   1.083       .  S
C543        C548   1.486       .  S
C543        C544   1.411       .  A
C544        C545   1.403       .  A
C544        F549   1.357       .  S
C545        C546   1.402       .  A
C545        H550   1.083       .  S
C546        C547   1.399       .  A
C547        F551   1.355       .  S
C548        C553   1.410       .  A
C548        C557   1.406       .  A
C553        C554   1.397       .  A
C553        F558   1.358       .  S
C554        C555   1.401       .  A
C554        H559   1.083       .  S
C555        C556   1.405       .  A
C556        C557   1.400       .  A
C556        F560   1.357       .  S
C557        H561   1.083       .  S
C562        C563   1.409       .  A
C562        C567   1.404       .  A
C562        H572   1.083       .  S
C563        C568   1.485       .  S
C563        C564   1.405       .  A
C564        C565   1.393       .  A
C564        F569   1.357       .  S
C565        C566   1.403       .  A
C565        H570   1.084       .  S
C566        C567   1.404       .  A
C567        F571   1.357       .  S
C568        C573   1.407       .  A
C568        C577   1.404       .  A
C573        C574   1.400       .  A
C573        F578   1.357       .  S
C574        C575   1.405       .  A
C574        H579   1.083       .  S
C575        C576   1.409       .  A
C576        C577   1.398       .  A
C576        F580   1.357       .  S
C577        H581   1.083       .  S
C582        C583   1.407       .  A
C582        C587   1.399       .  A
C582        H592   1.082       .  S
C583        C588   1.494       .  S
C583        C584   1.410       .  A
C584        C585   1.401       .  A
C584        F589   1.358       .  S
C585        C586   1.405       .  A
C585        H590   1.083       .  S
C586        C587   1.405       .  A
C587        F591   1.356       .  S
C588        C593   1.411       .  A
C588        C597   1.409       .  A
C593        C594   1.399       .  A
C593        F598   1.357       .  S
C594        C595   1.402       .  A
C594        H599   1.083       .  S
C595        C596   1.403       .  A
C596        C597   1.400       .  A
C596        F600   1.357       .  S
C597        H601   1.083       .  S
C602        C603   1.403       .  A
C602        C607   1.392       .  A
C602        H612   1.083       .  S
C603        C608   1.484       .  S
C603        C604   1.409       .  A
C604        C605   1.400       .  A
C604        F609   1.357       .  S
C605        C606   1.405       .  A
C605        H610   1.083       .  S
C606        C607   1.407       .  A
C607        F611   1.357       .  S
C608        C613   1.406       .  A
C608        C617   1.408       .  A
C613        C614   1.390       .  A
C613        F618   1.358       .  S
C614        C615   1.402       .  A
C614        H619   1.084       .  S
C615        C616   1.405       .  A
C616        C617   1.403       .  A
C616        F620   1.357       .  S
C617        H621   1.083       .  S
C622        C623   1.406       .  A
C622        C627   1.402       .  A
C622        H632   1.083       .  S
C623        C628   1.492       .  S
C623        C624   1.410       .  A
C624        C625   1.404       .  A
C624        F629   1.357       .  S
C625        C626   1.404       .  A
C625        H630   1.083       .  S
C626        C627   1.405       .  A
C627        F631   1.357       .  S
C628        C633   1.408       .  A
C628        C637   1.406       .  A
C633        C634   1.403       .  A
C633        F638   1.357       .  S
C634        C635   1.405       .  A
C634        H639   1.082       .  S
C635        C636   1.409       .  A
C636        C637   1.404       .  A
C636        F640   1.356       .  S
C637        H641   1.083       .  S
C642        C643   1.402       .  A
C642        C647   1.394       .  A
C642        H652   1.083       .  S
C643        C648   1.484       .  S
C643        C644   1.409       .  A
C644        C645   1.401       .  A
C644        F649   1.357       .  S
C645        C646   1.405       .  A
C645        H650   1.083       .  S
C646        C647   1.409       .  A
C647        F651   1.357       .  S
C648        C653   1.407       .  A
C648        C657   1.407       .  A
C653        C654   1.392       .  A
C653        F658   1.358       .  S
C654        C655   1.403       .  A
C654        H659   1.084       .  S
C655        C656   1.406       .  A
C656        C657   1.403       .  A
C656        F660   1.356       .  S
C657        H661   1.083       .  S
C662        C663   1.403       .  A
C662        C667   1.394       .  A
C662        H672   1.083       .  S
C663        C668   1.479       .  S
C663        C664   1.406       .  A
C664        C665   1.397       .  A
C664        F669   1.357       .  S
C665        C666   1.405       .  A
C665        H670   1.083       .  S
C666        C667   1.408       .  A
C667        F671   1.357       .  S
C668        C673   1.404       .  A
C668        C677   1.408       .  A
C673        C674   1.388       .  A
C673        F678   1.358       .  S
C674        C675   1.403       .  A
C674        H679   1.084       .  S
C675        C676   1.406       .  A
C676        C677   1.402       .  A
C676        F680   1.356       .  S
C677        H681   1.083       .  S
C682        C683   1.402       .  A
C682        C687   1.394       .  A
C682        H692   1.083       .  S
C683        C688   1.484       .  S
C683        C684   1.408       .  A
C684        C685   1.402       .  A
C684        F689   1.358       .  S
C685        C686   1.406       .  A
C685        H690   1.083       .  S
C686        C687   1.408       .  A
C687        F691   1.357       .  S
C688        C693   1.406       .  A
C688        C697   1.408       .  A
C693        C694   1.390       .  A
C693        F698   1.358       .  S
C694        C695   1.401       .  A
C694        H699   1.084       .  S
C695        C696   1.406       .  A
C696        C697   1.405       .  A
C696        F700   1.357       .  S
C697        H701   1.083       .  S
C702        C703   1.406       .  A
C702        C707   1.399       .  A
C702        H712   1.083       .  S
C703        C708   1.478       .  S
C703        C704   1.404       .  A
C704        C705   1.392       .  A
C704        F709   1.358       .  S
C705        C706   1.405       .  A
C705        H710   1.083       .  S
C706        C707   1.406       .  A
C707        F711   1.357       .  S
C708        C713   1.408       .  A
C708        C717   1.402       .  A
C713        C714   1.402       .  A
C713        F718   1.357       .  S
C714        C715   1.403       .  A
C714        H719   1.083       .  S
C715        C716   1.405       .  A
C716        C717   1.390       .  A
C716        F720   1.358       .  S
C717        H721   1.083       .  S
C722        C723   1.401       .  A
C722        C727   1.392       .  A
C722        H732   1.083       .  S
C723        C728   1.481       .  S
C723        C724   1.409       .  A
C724        C725   1.404       .  A
C724        F729   1.357       .  S
C725        C726   1.404       .  A
C725        H730   1.083       .  S
C726        C727   1.407       .  A
C727        F731   1.358       .  S
C728        C733   1.405       .  A
C728        C737   1.404       .  A
C733        C734   1.396       .  A
C733        F738   1.357       .  S
C734        C735   1.405       .  A
C734        H739   1.083       .  S
C735        C736   1.408       .  A
C736        C737   1.400       .  A
C736        F740   1.357       .  S
C737        H741   1.083       .  S
C742        C743   1.408       .  A
C742        C747   1.401       .  A
C742        H752   1.083       .  S
C743        C748   1.498       .  S
C743        C744   1.410       .  A
C744        C745   1.402       .  A
C744        F749   1.357       .  S
C745        C746   1.406       .  A
C745        H750   1.082       .  S
C746        C747   1.408       .  A
C747        F751   1.356       .  S
C748        C753   1.412       .  A
C748        C757   1.409       .  A
C753        C754   1.400       .  A
C753        F758   1.357       .  S
C754        C755   1.402       .  A
C754        H759   1.083       .  S
C755        C756   1.405       .  A
C756        C757   1.403       .  A
C756        F760   1.357       .  S
C757        H761   1.083       .  S
C762        C763   1.406       .  A
C762        C767   1.400       .  A
C762        H772   1.083       .  S
C763        C768   1.481       .  S
C763        C764   1.406       .  A
C764        C765   1.392       .  A
C764        F769   1.358       .  S
C765        C766   1.403       .  A
C765        H770   1.084       .  S
C766        C767   1.405       .  A
C767        F771   1.357       .  S
C768        C773   1.408       .  A
C768        C777   1.401       .  A
C773        C774   1.400       .  A
C773        F778   1.358       .  S
C774        C775   1.404       .  A
C774        H779   1.083       .  S
C775        C776   1.410       .  A
C776        C777   1.394       .  A
C776        F780   1.357       .  S
C777        H781   1.083       .  S
C782        C783   1.408       .  A
C782        C787   1.398       .  A
C782        H792   1.083       .  S
C783        C788   1.493       .  S
C783        C784   1.412       .  A
C784        C785   1.402       .  A
C784        F789   1.357       .  S
C785        C786   1.402       .  A
C785        H790   1.083       .  S
C786        C787   1.402       .  A
C787        F791   1.357       .  S
C788        C793   1.410       .  A
C788        C797   1.407       .  A
C793        C794   1.400       .  A
C793        F798   1.357       .  S
C794        C795   1.403       .  A
C794        H799   1.083       .  S
C795        C796   1.407       .  A
C796        C797   1.401       .  A
C796        F800   1.356       .  S
C797        H801   1.083       .  S
C802        C803   1.404       .  A
C802        C807   1.396       .  A
C802        H812   1.083       .  S
C803        C808   1.481       .  S
C803        C804   1.408       .  A
C804        C805   1.397       .  A
C804        F809   1.357       .  S
C805        C806   1.400       .  A
C805        H810   1.082       .  S
C806        C807   1.403       .  A
C807        F811   1.358       .  S
C808        C813   1.409       .  A
C808        C817   1.404       .  A
C813        C814   1.395       .  A
C813        F818   1.358       .  S
C814        C815   1.401       .  A
C814        H819   1.084       .  S
C815        C816   1.406       .  A
C816        C817   1.397       .  A
C816        F820   1.357       .  S
C817        H821   1.083       .  S
C822        C823   1.404       .  A
C822        C827   1.396       .  A
C822        H832   1.083       .  S
C823        C828   1.485       .  S
C823        C824   1.409       .  A
C824        C825   1.402       .  A
C824        F829   1.358       .  S
C825        C826   1.404       .  A
C825        H830   1.083       .  S
C826        C827   1.403       .  A
C827        F831   1.354       .  S
C828        C833   1.409       .  A
C828        C837   1.405       .  A
C833        C834   1.398       .  A
C833        F838   1.357       .  S
C834        C835   1.402       .  A
C834        H839   1.083       .  S
C835        C836   1.405       .  A
C836        C837   1.400       .  A
C836        F840   1.357       .  S
C837        H841   1.083       .  S
C842        C843   1.400       .  A
C842        C847   1.391       .  A
C842        H852   1.083       .  S
C843        C848   1.481       .  S
C843        C844   1.410       .  A
C844        C845   1.403       .  A
C844        F849   1.358       .  S
C845        C846   1.405       .  A
C845        H850   1.083       .  S
C846        C847   1.408       .  A
C847        F851   1.357       .  S
C848        C853   1.408       .  A
C848        C857   1.406       .  A
C853        C854   1.391       .  A
C853        F858   1.357       .  S
C854        C855   1.398       .  A
C854        H859   1.084       .  S
C855        C856   1.403       .  A
C856        C857   1.400       .  A
C856        F860   1.357       .  S
C857        H861   1.083       .  S
C862        C863   1.407       .  A
C862        C867   1.398       .  A
C862        H872   1.082       .  S
C863        C868   1.494       .  S
C863        C864   1.412       .  A
C864        C865   1.401       .  A
C864        F869   1.358       .  S
C865        C866   1.403       .  A
C865        H870   1.083       .  S
C866        C867   1.403       .  A
C867        F871   1.357       .  S
C868        C873   1.412       .  A
C868        C877   1.408       .  A
C873        C874   1.400       .  A
C873        F878   1.357       .  S
C874        C875   1.402       .  A
C874        H879   1.083       .  S
C875        C876   1.404       .  A
C876        C877   1.399       .  A
C876        F880   1.356       .  S
C877        H881   1.082       .  S
C882        C883   1.403       .  A
C882        C887   1.394       .  A
C882        H892   1.083       .  S
C883        C888   1.482       .  S
C883        C884   1.407       .  A
C884        C885   1.403       .  A
C884        F889   1.357       .  S
C885        C886   1.404       .  A
C885        H890   1.083       .  S
C886        C887   1.405       .  A
C887        F891   1.358       .  S
C888        C893   1.404       .  A
C888        C897   1.407       .  A
C893        C894   1.395       .  A
C893        F898   1.358       .  S
C894        C895   1.406       .  A
C894        H899   1.083       .  S
C895        C896   1.407       .  A
C896        C897   1.404       .  A
C896        F900   1.357       .  S
C897        H901   1.083       .  S
C902        C903   1.406       .  A
C902        C907   1.401       .  A
C902        H912   1.083       .  S
C903        C908   1.479       .  S
C903        C904   1.404       .  A
C904        C905   1.394       .  A
C904        F909   1.358       .  S
C905        C906   1.405       .  A
C905        H910   1.083       .  S
C906        C907   1.407       .  A
C907        F911   1.357       .  S
C908        C913   1.408       .  A
C908        C917   1.402       .  A
C913        C914   1.402       .  A
C913        F918   1.357       .  S
C914        C915   1.403       .  A
C914        H919   1.083       .  S
C915        C916   1.406       .  A
C916        C917   1.391       .  A
C916        F920   1.358       .  S
C917        H921   1.083       .  S
C922        C923   1.407       .  A
C922        C927   1.398       .  A
C922        H932   1.083       .  S
C923        C928   1.489       .  S
C923        C924   1.410       .  A
C924        C925   1.396       .  A
C924        F929   1.357       .  S
C925        C926   1.402       .  A
C925        H930   1.084       .  S
C926        C927   1.403       .  A
C927        F931   1.357       .  S
C928        C933   1.411       .  A
C928        C937   1.403       .  A
C933        C934   1.399       .  A
C933        F938   1.357       .  S
C934        C935   1.402       .  A
C934        H939   1.083       .  S
C935        C936   1.412       .  A
C936        C937   1.396       .  A
C936        F940   1.358       .  S
C937        H941   1.083       .  S
C942        C943   1.406       .  A
C942        C947   1.400       .  A
C942        H952   1.083       .  S
C943        C948   1.488       .  S
C943        C944   1.408       .  A
C944        C945   1.399       .  A
C944        F949   1.358       .  S
C945        C946   1.406       .  A
C945        H950   1.083       .  S
C946        C947   1.407       .  A
C947        F951   1.357       .  S
C948        C953   1.411       .  A
C948        C957   1.403       .  A
C953        C954   1.404       .  A
C953        F958   1.357       .  S
C954        C955   1.403       .  A
C954        H959   1.083       .  S
C955        C956   1.405       .  A
C956        C957   1.393       .  A
C956        F960   1.358       .  S
C957        H961   1.083       .  S
C962        C963   1.401       .  A
C962        C967   1.390       .  A
C962        H972   1.083       .  S
C963        C968   1.479       .  S
C963        C964   1.409       .  A
C964        C965   1.404       .  A
C964        F969   1.357       .  S
C965        C966   1.404       .  A
C965        H970   1.083       .  S
C966        C967   1.403       .  A
C967        F971   1.358       .  S
C968        C973   1.405       .  A
C968        C977   1.405       .  A
C973        C974   1.394       .  A
C973        F978   1.358       .  S
C974        C975   1.405       .  A
C974        H979   1.083       .  S
C975        C976   1.407       .  A
C976        C977   1.400       .  A
C976        F980   1.357       .  S
C977        H981   1.083       .  S
C982        C983   1.405       .  A
C982        C987   1.397       .  A
C982        H992   1.083       .  S
C983        C988   1.479       .  S
C983        C984   1.405       .  A
C984        C985   1.396       .  A
C984        F989   1.358       .  S
C985        C986   1.405       .  A
C985        H990   1.083       .  S
C986        C987   1.406       .  A
C987        F991   1.357       .  S
C988        C993   1.409       .  A
C988        C997   1.403       .  A
C993        C994   1.400       .  A
C993        F998   1.357       .  S
C994        C995   1.400       .  A
C994        H999   1.083       .  S
C995        C996   1.403       .  A
C996        C997   1.393       .  A
C996       F1000   1.358       .  S
C997       H1001   1.083       .  S
C1002      C1003   1.407       .  A
C1002      C1007   1.397       .  A
C1002      H1012   1.083       .  S
C1003      C1008   1.482       .  S
C1003      C1004   1.406       .  A
C1004      C1005   1.394       .  A
C1004      F1009   1.358       .  S
C1005      C1006   1.406       .  A
C1005      H1010   1.083       .  S
C1006      C1007   1.403       .  A
C1007      F1011   1.357       .  S
C1008      C1013   1.409       .  A
C1008      C1017   1.405       .  A
C1013      C1014   1.399       .  A
C1013      F1018   1.357       .  S
C1014      C1015   1.401       .  A
C1014      H1019   1.083       .  S
C1015      C1016   1.402       .  A
C1016      C1017   1.392       .  A
C1016      F1020   1.358       .  S
C1017      H1021   1.083       .  S
C1022      C1023   1.408       .  A
C1022      C1027   1.402       .  A
C1022      H1032   1.083       .  S
C1023      C1028   1.485       .  S
C1023      C1024   1.408       .  A
C1024      C1025   1.391       .  A
C1024      F1029   1.358       .  S
C1025      C1026   1.399       .  A
C1025      H1030   1.084       .  S
C1026      C1027   1.404       .  A
C1027      F1031   1.357       .  S
C1028      C1033   1.409       .  A
C1028      C1037   1.404       .  A
C1033      C1034   1.399       .  A
C1033      F1038   1.357       .  S
C1034      C1035   1.404       .  A
C1034      H1039   1.083       .  S
C1035      C1036   1.409       .  A
C1036      C1037   1.395       .  A
C1036      F1040   1.357       .  S
C1037      H1041   1.083       .  S
