geometry optimzed in LAMMPS
_audit_creation_date              2020-11-30 
_audit_creation_method            'lammps2cif' 
_symmetry_space_group_name_H-M    'P1' 
_symmetry_Int_Tables_number       1 
_symmetry_cell_setting            triclinic 
loop_ 
_symmetry_equiv_pos_as_xyz 
  x,y,z 
_cell_length_a                    24.8839234 
_cell_length_b                    24.986796617245673 
_cell_length_c                    24.867841227949754 
_cell_angle_alpha                 93.25329464461953 
_cell_angle_beta                  93.21678436336985 
_cell_angle_gamma                 93.44074979486473 
loop_ 
_atom_site_label 
_atom_site_type_symbol 
_atom_site_fract_x 
_atom_site_fract_y 
_atom_site_fract_z 
_atom_site_charge 
N1          N  0.59211958  0.49351751  0.10502156    -0.03900
N2          N  0.62799140  0.46328413  0.12820804    -0.56000
N3          N  0.53320209  0.60537682  0.06730608    -0.03600
N4          N  0.52508287  0.65628181  0.06339413    -0.58200
N5          N  0.50480312  0.58414073  0.10471838    -0.03200
N6          N  0.47610492  0.62191644  0.12718386    -0.56000
N7          N  0.61476397  0.51925209  0.06660468    -0.02900
N8          N  0.66496432  0.50753564  0.06255153    -0.58500
C9          C  0.67273742  0.47227039  0.10002285     0.98300
C10         C  0.48925147  0.66629799  0.09982330     0.98000
N11         N  0.49667662  0.57750018  0.90859950    -0.04100
N12         N  0.46944353  0.61355130  0.88260749    -0.56600
N13         N  0.61129658  0.51730196  0.94529541    -0.02200
N14         N  0.66302361  0.50911161  0.94628615    -0.57900
N15         N  0.58386250  0.48711101  0.90706774    -0.04100
N16         N  0.61738379  0.45637357  0.88151565    -0.56900
N17         N  0.52915368  0.60284039  0.94650514    -0.01900
N18         N  0.52563568  0.65520941  0.94708526    -0.57900
Mn19       Mn  0.57298815  0.56183593  0.00698875     1.18400
C20         C  0.48863768  0.66187289  0.90728297     1.00400
C21         C  0.66662601  0.47138624  0.90651930     1.01000
N22         N  0.41110113  0.49127782  0.10694790    -0.04100
N23         N  0.37638314  0.51997231  0.13314982    -0.60400
N24         N  0.46763311  0.37673998  0.06876617    -0.02900
N25         N  0.47302347  0.32479658  0.06792408    -0.61100
N26         N  0.49877637  0.40283434  0.10716799    -0.03600
N27         N  0.52745583  0.36790906  0.13305776    -0.60700
N28         N  0.38460094  0.45999751  0.06887465    -0.02500
N29         N  0.33246238  0.46562011  0.06844215    -0.61400
Mn30       Mn  0.50213534  0.49375011  0.11026231     1.10700
C31         C  0.32752495  0.50265268  0.10852938     1.01600
C32         C  0.50998227  0.31943959  0.10793493     1.01700
N33         N  0.49232175  0.39555691  0.90964801    -0.03700
N34         N  0.52413598  0.36017940  0.88804121    -0.59000
N35         N  0.38049157  0.45603649  0.94759734    -0.03000
N36         N  0.32864803  0.46180082  0.94887007    -0.55800
N37         N  0.40204069  0.48303186  0.90942324    -0.04300
N38         N  0.36353436  0.50792939  0.88329490    -0.58600
N39         N  0.46544486  0.37284553  0.94734684    -0.03300
N40         N  0.47771024  0.32295918  0.95207140    -0.55800
Mn41       Mn  0.49282334  0.48565567  0.90449085     1.20200
Mn42       Mn  0.42379592  0.41569437  0.00760440     1.10100
Cl43       Cl  0.49765103  0.48945907  0.00732611    -0.83800
C44         C  0.51474147  0.31556458  0.91605342     0.98600
C45         C  0.31837265  0.49453702  0.90961404     0.98400
N46         N  0.13750546  0.53244008  0.14345862    -0.01300
C47         C  0.18032982  0.56340632  0.12734962     0.01300
C48         C  0.18625477  0.61211319  0.15649090    -0.21600
C49         C  0.15047031  0.60996547  0.19567983    -0.21800
C50         C  0.12377747  0.55992930  0.18959260     0.01200
H51         H  0.22034504  0.64125284  0.15682260     0.15000
H52         H  0.15230840  0.63719956  0.23133022     0.15000
N53         N  0.86355129  0.52324453  0.13929963    -0.01300
C54         C  0.80884730  0.51790370  0.13975672     0.01300
C55         C  0.78894650  0.55897364  0.17015531    -0.21600
C56         C  0.83245463  0.58971656  0.19202046    -0.21800
C57         C  0.87772862  0.56379044  0.17813547     0.01200
H58         H  0.74726518  0.56379003  0.17876674     0.15000
H59         H  0.83041324  0.62009523  0.22463832     0.15000
N60         N  0.12273372  0.44423802  0.86492275    -0.01300
C61         C  0.10599547  0.40554391  0.82521640     0.01300
C62         C  0.14882542  0.37556556  0.81181909    -0.21600
C63         C  0.19431842  0.40260939  0.83448787    -0.21800
C64         C  0.17760904  0.44517807  0.86518761     0.01200
H65         H  0.14883080  0.34536604  0.77872002     0.15000
H66         H  0.23538396  0.39448546  0.82611000     0.15000
N67         N  0.85288638  0.43340438  0.86117466    -0.01300
C68         C  0.86375774  0.40915860  0.81213590     0.01300
C69         C  0.83070849  0.36345308  0.79991075    -0.21600
C70         C  0.79558002  0.36016741  0.83957939    -0.21800
C71         C  0.80744540  0.40441197  0.87470803     0.01200
H72         H  0.82681151  0.33980913  0.76184728     0.15000
H73         H  0.75920122  0.33384650  0.83746891     0.15000
N74         N  0.99009742  0.46576628  0.91788334    -0.34400
N75         N  0.07888915  0.49392084  0.00283520    -0.55000
N76         N  0.99650971  0.50542949  0.08451381    -0.34400
N77         N  0.90761206  0.47761868  0.99982992    -0.55000
C78         C  0.03433434  0.47871497  0.89014296     0.29200
C79         C  0.94579295  0.47723743  0.88693276     0.29200
C80         C  0.04138493  0.49717375  0.11621040     0.29200
C81         C  0.95289512  0.49280035  0.11320329     0.29200
C82         C  0.10567082  0.47057041  0.96209448     0.37800
C83         C  0.11019708  0.49123649  0.04939414     0.37800
C84         C  0.87635941  0.48137493  0.95332362     0.37800
C85         C  0.88058536  0.49928432  0.04140042     0.37800
C86         C  0.01810365  0.50066024  0.84258180    -0.19700
C87         C  0.96251735  0.50048832  0.84098621    -0.19700
C88         C  0.02572100  0.47675559  0.16390120    -0.19700
C89         C  0.97014325  0.47410612  0.16202439    -0.19700
C90         C  0.15242460  0.45066404  0.98405535    -0.20700
C91         C  0.15561307  0.46454543  0.03849514    -0.20700
C92         C  0.83091835  0.50770478  0.96520275    -0.20700
C93         C  0.83336503  0.51893389  0.02019882    -0.20700
C94         C  0.08850739  0.46803753  0.90565042    -0.16100
C95         C  0.89079112  0.46753673  0.89940523    -0.16100
C96         C  0.89833207  0.50158556  0.09789425    -0.16100
C97         C  0.09611767  0.50666784  0.10283277    -0.16100
H98         H  0.04382473  0.51716951  0.81315761     0.16800
H99         H  0.93761785  0.51855563  0.81092187     0.16800
H100        H  0.05132756  0.46179764  0.19537424     0.16800
H101        H  0.94512754  0.45838840  0.19241768     0.16800
H102        H  0.18044885  0.42596239  0.96436450     0.15100
H103        H  0.18539975  0.45165068  0.06748087     0.15100
H104        H  0.80142790  0.52192349  0.93671212     0.15100
H105        H  0.80472738  0.54202822  0.04097682     0.15100
H106        H  0.99012740  0.44699357  0.95394762     0.28400
H107        H  0.99567403  0.52205744  0.04729303     0.28400
N108        N  0.90839435  0.49313002  0.40524974    -0.03900
N109        N  0.89050390  0.52670140  0.36951450    -0.56000
N110        N  0.93264032  0.37614213  0.46279820    -0.03600
N111        N  0.93263498  0.32474290  0.47111673    -0.58200
N112        N  0.89801315  0.40045387  0.49218740    -0.03200
N113        N  0.87458341  0.36474847  0.52271253    -0.56000
N114        N  0.94415423  0.46357134  0.38275963    -0.02900
N115        N  0.95087074  0.47546899  0.33265248    -0.58500
C116        C  0.91759615  0.51461344  0.32454345     0.98300
C117        C  0.89669121  0.31769289  0.50823452     0.98000
N118        N  0.09125165  0.39769199  0.50950876    -0.04100
N119        N  0.10912394  0.36298811  0.54384775    -0.56600
N120        N  0.06526501  0.45691487  0.39254949    -0.02200
N121        N  0.06790924  0.46194400  0.34050852    -0.57900
N122        N  0.10415254  0.48577290  0.42057471    -0.04100
N123        N  0.13400883  0.51240314  0.38672319    -0.56900
N124        N  0.05356860  0.37318091  0.47606732    -0.01900
N125        N  0.04565174  0.32220792  0.48597511    -0.57900
Mn126      Mn  0.99856944  0.41685164  0.42761368     1.18400
C127        C  0.08026369  0.31618514  0.52803322     1.00400
C128        C  0.11071734  0.49610823  0.33687311     1.01000
N129        N  0.90027914  0.49193610  0.58766491    -0.04100
N130        N  0.87275598  0.46258429  0.62119732    -0.60400
N131        N  0.94638788  0.60725792  0.53295216    -0.02900
N132        N  0.94674571  0.65981782  0.53035644    -0.61100
N133        N  0.90683517  0.58259073  0.50206416    -0.03600
N134        N  0.87928452  0.61887819  0.47714440    -0.60700
N135        N  0.93852719  0.52181919  0.61566935    -0.02500
N136        N  0.93763596  0.51450753  0.66758083    -0.61400
Mn137      Mn  0.89935995  0.49156545  0.49615974     1.10700
C138        C  0.89668851  0.47789456  0.67096383     1.01600
C139        C  0.90487860  0.66676523  0.49559688     1.01700
N140        N  0.10541870  0.57942667  0.51428579    -0.03700
N141        N  0.13251889  0.61566430  0.48697834    -0.59000
N142        N  0.05952180  0.51996300  0.62446374    -0.03000
N143        N  0.05141774  0.50824859  0.67430610    -0.55800
N144        N  0.09408071  0.48879405  0.60244204    -0.04300
N145        N  0.10920885  0.45385910  0.63796679    -0.58600
N146        N  0.06856998  0.60349453  0.54099950    -0.03300
N147        N  0.06975738  0.65487149  0.53351540    -0.55800
Mn148      Mn  0.10297880  0.48825191  0.51208977     1.20200
Mn149      Mn  0.00379448  0.56399652  0.57891507     1.10100
Cl150      Cl  0.00118509  0.49041819  0.50346675    -0.83800
C151        C  0.10917160  0.66243486  0.50013404     0.98600
C152        C  0.08213599  0.46723294  0.68249760     0.98400
N153        N  0.52715915  0.86300107  0.13851345    -0.01300
C154        C  0.56349777  0.88033419  0.18030601     0.01300
C155        C  0.59371714  0.83863723  0.19599198    -0.21600
C156        C  0.56990273  0.79293680  0.17081899    -0.21800
C157        C  0.52849199  0.80841717  0.13748713     0.01200
H158        H  0.62169172  0.83929248  0.23109767     0.15000
H159        H  0.57869201  0.75230269  0.17963180     0.15000
N160        N  0.54167498  0.12991257  0.14413178    -0.01300
C161        C  0.57139519  0.17426873  0.12972828     0.01300
C162        C  0.61860085  0.18275622  0.16143288    -0.21600
C163        C  0.61683210  0.14624022  0.19979423    -0.21800
C164        C  0.56882806  0.11597896  0.19028884     0.01200
H165        H  0.64621208  0.21812360  0.16321616     0.15000
H166        H  0.64289002  0.14835681  0.23635111     0.15000
N167        N  0.46735873  0.12785259  0.86637208    -0.01300
C168        C  0.47787165  0.18219355  0.86736190     0.01300
C169        C  0.44122683  0.20602530  0.83465249    -0.21600
C170        C  0.40714789  0.16597944  0.81137014    -0.21800
C171        C  0.42736683  0.11818929  0.82596086     0.01200
H172        H  0.44067831  0.24820376  0.82682921     0.15000
H173        H  0.37860118  0.17124618  0.77778529     0.15000
N174        N  0.44807171  0.85369310  0.85962744    -0.01300
C175        C  0.41774075  0.86605821  0.81436201     0.01300
C176        C  0.37495138  0.82896097  0.80278679    -0.21600
C177        C  0.38076175  0.78933536  0.83730920    -0.21800
C178        C  0.42607053  0.80370799  0.87033804     0.01200
H179        H  0.34795344  0.82600291  0.76686038     0.15000
H180        H  0.35847647  0.75058533  0.83375347     0.15000
N181        N  0.50072547  0.07789801  0.00573250    -0.34400
N182        N  0.50551763  0.99426652  0.08633381    -0.55000
N183        N  0.48255869  0.90644964  0.99884109    -0.34400
N184        N  0.48011411  0.99167691  0.91817039    -0.55000
C185        C  0.49354533  0.10729361  0.05243312     0.29200
C186        C  0.48154418  0.10543783  0.96360518     0.29200
C187        C  0.50587609  0.88158619  0.04102015     0.29200
C188        C  0.49392949  0.87914482  0.95208337     0.29200
C189        C  0.49588069  0.03810930  0.11851694     0.37800
C190        C  0.49062620  0.95025713  0.11313215     0.37800
C191        C  0.49279868  0.03578884  0.89032069     0.37800
C192        C  0.48897428  0.94781545  0.88547223     0.37800
C193        C  0.46821476  0.15311590  0.04003703    -0.19700
C194        C  0.46035846  0.15192808  0.98452726    -0.19700
C195        C  0.53366672  0.83930978  0.01999808    -0.19700
C196        C  0.52597028  0.83783924  0.96450859    -0.19700
C197        C  0.47226404  0.02173727  0.16441031    -0.20700
C198        C  0.46872856  0.96630474  0.16084357    -0.20700
C199        C  0.51226271  0.01981773  0.84143724    -0.20700
C200        C  0.51041188  0.96449556  0.83865280    -0.20700
C201        C  0.50685672  0.09271090  0.10618521    -0.16100
C202        C  0.48377946  0.09000678  0.90706158    -0.16100
C203        C  0.48021663  0.89288278  0.89812693    -0.16100
C204        C  0.50298737  0.89673770  0.09761015    -0.16100
H205        H  0.45373465  0.18274782  0.06817799     0.16800
H206        H  0.43945346  0.18140743  0.96272775     0.16800
H207        H  0.55958392  0.81358535  0.04149457     0.16800
H208        H  0.54507169  0.81158776  0.93631893     0.16800
H209        H  0.45629036  0.04691439  0.19567944     0.15100
H210        H  0.45086783  0.94062722  0.18948381     0.15100
H211        H  0.52847878  0.04549386  0.81190559     0.15100
H212        H  0.52660297  0.93960948  0.80730524     0.15100
H213        H  0.51979935  0.04188529  0.00271981     0.28400
H214        H  0.45905379  0.93953035  0.00179728     0.28400
N215        N  0.12041995  0.85997211  0.51078062    -0.01300
C216        C  0.10018503  0.81046372  0.52304173     0.01300
C217        C  0.11050228  0.80330953  0.57731999    -0.21600
C218        C  0.14795307  0.84295062  0.59590149    -0.21800
C219        C  0.15746606  0.87344242  0.55271806     0.01200
H220        H  0.10399248  0.76605217  0.59698893     0.15000
H221        H  0.17440930  0.84114139  0.63178011     0.15000
N222        N  0.85592578  0.13077611  0.53288371    -0.01300
C223        C  0.80105150  0.12833866  0.53110338     0.01300
C224        C  0.78254271  0.15903163  0.57290512    -0.21600
C225        C  0.82687542  0.18389173  0.60014792    -0.21800
C226        C  0.87054257  0.17234361  0.57040261     0.01200
H227        H  0.74101710  0.16678223  0.57965102     0.15000
H228        H  0.82499546  0.21754332  0.62938814     0.15000
N229        N  0.12561214  0.13473215  0.57075227    -0.01300
C230        C  0.11103160  0.18023006  0.59868434     0.01300
C231        C  0.14741559  0.19630089  0.64107684    -0.21600
C232        C  0.18892171  0.16390701  0.63773722    -0.21800
C233        C  0.17644845  0.12823812  0.59399428     0.01200
H234        H  0.14841134  0.23355892  0.66576014     0.15000
H235        H  0.22765512  0.17081657  0.65998706     0.15000
N236        N  0.84214135  0.85227389  0.44167851    -0.01300
C237        C  0.79325114  0.85986397  0.41492386     0.01300
C238        C  0.77259582  0.81391159  0.38579330    -0.21600
C239        C  0.80544423  0.77453601  0.39762389    -0.21800
C240        C  0.84583170  0.79757595  0.43287876     0.01200
H241        H  0.73333407  0.80771057  0.36444556     0.15000
H242        H  0.79796875  0.73225276  0.38568804     0.15000
N243        N  0.90080765  0.99199208  0.48665467    -0.34400
N244        N  0.98234988  0.91052885  0.49144769    -0.55000
N245        N  0.07124944  0.99831297  0.52059486    -0.34400
N246        N  0.98989874  0.07830897  0.52610201    -0.55000
C247        C  0.87078229  0.94453692  0.48954323     0.29200
C248        C  0.87449050  0.03260480  0.51068187     0.29200
C249        C  0.09979603  0.95654651  0.50354778     0.29200
C250        C  0.10394068  0.04411550  0.51952131     0.29200
C251        C  0.94017815  0.88350754  0.46199555     0.37800
C252        C  0.02775362  0.88582506  0.47865085     0.37800
C253        C  0.94713044  0.10499095  0.50743047     0.37800
C254        C  0.03528623  0.11013576  0.51941040     0.37800
C255        C  0.82561743  0.95490026  0.51736005    -0.19700
C256        C  0.82778295  0.00974414  0.53061658    -0.19700
C257        C  0.14998381  0.97593620  0.48964431    -0.19700
C258        C  0.15193536  0.03094287  0.49829210    -0.19700
C259        C  0.96016732  0.84412667  0.42830701    -0.20700
C260        C  0.01478828  0.84444057  0.44015411    -0.20700
C261        C  0.96555209  0.15248465  0.48698528    -0.20700
C262        C  0.02105860  0.15502202  0.49330585    -0.16800
C263        C  0.88403800  0.89280426  0.46706184    -0.16100
C264        C  0.89172392  0.08932791  0.51330829    -0.16100
C265        C  0.08973530  0.09765661  0.53297903    -0.16100
C266        C  0.08173736  0.90115646  0.49874057    -0.16100
H267        H  0.79549098  0.92568906  0.52942378     0.16800
H268        H  0.79879728  0.02941915  0.55426370     0.16800
H269        H  0.18020160  0.95327836  0.47064122     0.16800
H270        H  0.18258323  0.05812791  0.48415154     0.16800
H271        H  0.93854258  0.81869615  0.39670450     0.15100
H272        H  0.04243058  0.81942932  0.41996505     0.15100
H273        H  0.94152824  0.18112086  0.46722070     0.15100
H274        H  0.04805347  0.18511722  0.47772954     0.15100
H275        H  0.93666901  0.99687947  0.46696354     0.28400
H276        H  0.03274272  0.99494288  0.53417974     0.28400
N277        N  0.48624060  0.09893559  0.41711660    -0.03900
N278        N  0.51784728  0.12237321  0.38267041    -0.56000
N279        N  0.37201745  0.05803684  0.47756016    -0.03600
N280        N  0.32038144  0.05618556  0.48664147    -0.58200
N281        N  0.39955482  0.09563137  0.50867707    -0.03200
N282        N  0.36608415  0.11997687  0.54053943    -0.56000
N283        N  0.45311024  0.06258615  0.39031244    -0.02900
N284        N  0.46015824  0.06114292  0.33833387    -0.58500
C285        C  0.50009531  0.09838711  0.33369077     0.98300
C286        C  0.31684819  0.09483383  0.52562707     0.98000
N287        N  0.39342796  0.89870155  0.49184143    -0.04100
N288        N  0.35776701  0.87049989  0.51842842    -0.56600
N289        N  0.45020887  0.94139660  0.38023000    -0.02200
N290        N  0.46018535  0.94718338  0.32942221    -0.57900
N291        N  0.48025175  0.90559687  0.40173386    -0.04100
N292        N  0.51242124  0.88710200  0.36502333    -0.56900
N293        N  0.36879246  0.93580393  0.46629250    -0.01900
N294        N  0.31699589  0.93358775  0.47383726    -0.57900
Mn295      Mn  0.40996113  0.99939489  0.42802688     1.18400
C296        C  0.31044452  0.89291833  0.50597929     1.00400
C297        C  0.49880122  0.91342897  0.32026678     1.01000
N298        N  0.49458289  0.09333420  0.59913139    -0.04100
N299        N  0.46236383  0.11099871  0.63635820    -0.60400
N300        N  0.60491715  0.06018638  0.53241426    -0.02900
N301        N  0.65533255  0.05706887  0.52122599    -0.61100
N302        N  0.58175532  0.09769842  0.50626176    -0.03600
N303        N  0.61779168  0.12126774  0.47597273    -0.60700
N304        N  0.52500016  0.05759695  0.62011143    -0.02500
N305        N  0.51558026  0.05118491  0.67084306    -0.61400
Mn306      Mn  0.49093199  0.10074205  0.50834555     1.10700
C307        C  0.47663399  0.08411072  0.68072184     1.01600
C308        C  0.66307258  0.09412478  0.48570288     1.01700
N309        N  0.57537374  0.90451297  0.49129631    -0.03700
N310        N  0.60888989  0.88355638  0.45707199    -0.59000
N311        N  0.52110549  0.93677881  0.61131670    -0.03000
N312        N  0.51526821  0.93764474  0.66356690    -0.55800
N313        N  0.48825580  0.90007027  0.58465190    -0.04300
N314        N  0.45807643  0.87559997  0.61977447    -0.58600
N315        N  0.60253725  0.94077162  0.52411666    -0.03300
N316        N  0.65395149  0.94475072  0.51419116    -0.55800
Mn317      Mn  0.48400652  0.89818067  0.49218726     1.20200
Mn318      Mn  0.56404871  0.99911201  0.57272812     1.10100
Cl319      Cl  0.48690888  0.99932881  0.50045887    -0.83800
C320        C  0.65774944  0.90938305  0.47243868     0.98600
C321        C  0.47619826  0.89961468  0.66882776     0.98400
C322        C  0.75268100  0.89511252  0.43165428    -0.11100
C323        C  0.70836744  0.90381983  0.44709359    -0.12600
C324        C  0.22236949  0.10765631  0.56828322    -0.11100
C325        C  0.26650514  0.10275260  0.55063631    -0.12600
C326        C  0.71700091  0.10570363  0.47043302    -0.11100
C327        C  0.76380314  0.10969787  0.48673745    -0.12600
C328        C  0.21359918  0.88082606  0.54167504    -0.11100
C329        C  0.25967742  0.88219835  0.52889183    -0.12600
C330        C  0.45410091  0.89211751  0.72091973    -0.11100
C331        C  0.43969311  0.88743472  0.76650696    -0.12600
C332        C  0.43655123  0.08729964  0.77699246    -0.11100
C333        C  0.45061313  0.08360001  0.73111663    -0.12600
C334        C  0.52513815  0.10282553  0.28309749    -0.11100
C335        C  0.54240924  0.10282333  0.23850265    -0.12600
C336        C  0.52671579  0.91316694  0.27101762    -0.11100
C337        C  0.54583132  0.90887218  0.22740561    -0.12600
C338        C  0.89316419  0.26790695  0.53516423    -0.11100
C339        C  0.89172069  0.22325294  0.55224579    -0.12600
C340        C  0.87858804  0.76150912  0.46195494    -0.11100
C341        C  0.89212215  0.71928335  0.47852070    -0.12600
C342        C  0.08526014  0.22361909  0.57433190    -0.11100
C343        C  0.08106504  0.26664321  0.55501160    -0.12600
C344        C  0.11945030  0.71560704  0.48204637    -0.11100
C345        C  0.11133536  0.76277182  0.49003383    -0.12600
C346        C  0.88202800  0.43649629  0.76588834    -0.11100
C347        C  0.88681797  0.45412472  0.72167118    -0.12600
C348        C  0.07913655  0.43858413  0.73110427    -0.11100
C349        C  0.08012128  0.42127438  0.77566442    -0.12600
C350        C  0.91423058  0.53972558  0.27347956    -0.11100
C351        C  0.90800915  0.55312115  0.22743634    -0.12600
C352        C  0.11967550  0.53434734  0.24041360    -0.11100
C353        C  0.12074490  0.51852855  0.28575527    -0.12600
C354        C  0.53228635  0.26824575  0.11481397    -0.11100
C355        C  0.54746719  0.22314101  0.11561052    -0.12600
C356        C  0.48857410  0.76802086  0.11512401    -0.11100
C357        C  0.47500970  0.72066242  0.10975478    -0.12600
C358        C  0.46942176  0.71470493  0.89806471    -0.11100
C359        C  0.45401575  0.75952064  0.89210365    -0.12600
C360        C  0.71659991  0.44620798  0.89892502    -0.11100
C361        C  0.76060571  0.42853600  0.89478767    -0.12600
C362        C  0.53311910  0.26279657  0.90560677    -0.11100
C363        C  0.52047271  0.21581292  0.89534812    -0.12600
C364        C  0.21679807  0.48686083  0.88626175    -0.11100
C365        C  0.26330810  0.50332975  0.89445441    -0.12600
C366        C  0.23117354  0.54070175  0.11701572    -0.11100
C367        C  0.27636287  0.52525379  0.11618513    -0.12600
C368        C  0.77290216  0.47354063  0.11915831    -0.11100
C369        C  0.72633938  0.45730801  0.11239461    -0.12600
loop_ 
_geom_bond_atom_site_label_1 
_geom_bond_atom_site_label_2 
_geom_bond_distance 
_geom_bond_site_symmetry_2 
_ccdc_geom_bond_type 
N1            N2   1.331       .  A
N1            N7   1.315       .  A
N1          Mn30   2.251       .  S
N2            C9   1.363       .  A
N3            N5   1.316       .  A
N3            N4   1.308       .  A
N3          Mn19   2.127       .  S
N4           C10   1.330       .  A
N5            N6   1.334       .  A
N5          Mn30   2.268       .  S
N6           C10   1.366       .  A
N7            N8   1.308       .  A
N7          Mn19   2.133       .  S
N8            C9   1.333       .  A
C9          C369   1.428       .  S
C10         C357   1.436       .  S
N11          N17   1.315       .  A
N11          N12   1.334       .  A
N11         Mn41   2.287       .  S
N12          C20   1.370       .  A
N13          N14   1.315       .  A
N13          N15   1.313       .  A
N13         Mn19   2.144   1_556  S
N14          C21   1.337       .  A
N15          N16   1.331       .  A
N15         Mn41   2.261       .  S
N16          C21   1.364       .  A
N17          N18   1.316       .  A
N17         Mn19   2.151   1_556  S
N18          C20   1.338       .  A
Mn19        Cl43   2.526       .  S
C20         C358   1.457       .  S
C21         C360   1.444       .  S
N22          N23   1.330       .  A
N22          N28   1.314       .  A
N22         Mn30   2.259       .  S
N23          C31   1.365       .  A
N24          N26   1.313       .  A
N24          N25   1.312       .  A
N24         Mn42   2.135       .  S
N25          C32   1.335       .  A
N26          N27   1.331       .  A
N26         Mn30   2.265       .  S
N27          C32   1.366       .  A
N28          N29   1.313       .  A
N28         Mn42   2.145       .  S
N29          C31   1.337       .  A
Mn30        Cl43   2.552       .  S
C31         C367   1.441       .  S
C32         C354   1.440       .  S
N33          N34   1.332       .  A
N33          N39   1.317       .  A
N33         Mn41   2.262       .  S
N34          C44   1.363       .  A
N35          N36   1.309       .  A
N35          N37   1.315       .  A
N35         Mn42   2.127   1_556  S
N36          C45   1.332       .  A
N37          N38   1.332       .  A
N37         Mn41   2.266       .  S
N38          C45   1.366       .  A
N39          N40   1.311       .  A
N39         Mn42   2.143   1_556  S
N40          C44   1.334       .  A
Mn41        Cl43   2.549   1_556  S
Mn42        Cl43   2.524       .  S
C44         C362   1.436       .  S
C45         C365   1.434       .  S
N46          C50   1.374       .  A
N46          C47   1.371       .  A
N46          C97   1.492       .  S
C47         C366   1.447       .  S
C47          C48   1.376       .  A
C48          C49   1.358       .  A
C48          H51   1.084       .  S
C49          C50   1.377       .  A
C49          H52   1.084       .  S
C50         C352   1.454       .  S
N53          C57   1.375       .  A
N53          C54   1.361       .  A
N53          C96   1.482       .  S
C54         C368   1.434       .  S
C54          C55   1.373       .  A
C55          C56   1.358       .  A
C55          H58   1.083       .  S
C56          C57   1.383       .  A
C56          H59   1.084       .  S
C57         C351   1.449       .  S
N60          C64   1.364       .  A
N60          C61   1.371       .  A
N60          C94   1.481       .  S
C61         C349   1.444       .  S
C61          C62   1.384       .  A
C62          C63   1.360       .  A
C62          H65   1.085       .  S
C63          C64   1.372       .  A
C63          H66   1.083       .  S
C64         C364   1.438       .  S
N67          C71   1.374       .  A
N67          C68   1.378       .  A
N67          C95   1.494       .  S
C68         C346   1.451       .  S
C68          C69   1.376       .  A
C69          C70   1.357       .  A
C69          H72   1.083       .  S
C70          C71   1.377       .  A
C70          H73   1.084       .  S
C71         C361   1.445       .  S
N74          C79   1.363       .  A
N74          C78   1.364   1_655  A
N74         H106   1.035       .  S
N75          C82   1.366   1_554  A
N75          C83   1.366       .  A
N76          C81   1.363       .  A
N76          C80   1.363   1_655  A
N76         H107   1.036       .  S
N77          C84   1.368       .  A
N77          C85   1.368   1_556  A
C78          C86   1.382       .  A
C78          C94   1.426       .  A
C79          C95   1.430       .  A
C79          C87   1.384       .  A
C80          C88   1.384       .  A
C80          C97   1.429       .  A
C81          C96   1.423       .  A
C81          C89   1.381       .  A
C82          C94   1.441       .  A
C82          C90   1.389       .  A
C83          C97   1.431       .  A
C83          C91   1.378       .  A
C84          C92   1.380       .  A
C84          C95   1.436       .  A
C85          C93   1.389       .  A
C85          C96   1.446       .  A
C86          C87   1.381   1_455  A
C86          H98   1.082       .  S
C87          H99   1.080       .  S
C88          C89   1.379   1_455  A
C88         H100   1.079       .  S
C89         H101   1.082       .  S
C90          C91   1.375   1_556  A
C90         H102   1.078       .  S
C91         H103   1.081       .  S
C92          C93   1.378   1_556  A
C92         H104   1.081       .  S
C93         H105   1.079       .  S
N108        N109   1.333       .  A
N108        N114   1.318       .  A
N108       Mn137   2.287       .  S
N109        C116   1.366       .  A
N110        N112   1.315       .  A
N110        N111   1.312       .  A
N110       Mn126   2.134       .  S
N111        C117   1.332       .  A
N112        N113   1.333       .  A
N112       Mn137   2.271       .  S
N113        C117   1.366       .  A
N114        N115   1.315       .  A
N114       Mn126   2.147       .  S
N115        C116   1.336       .  A
C116        C350   1.448       .  S
C117        C338   1.446       .  S
N118        N124   1.316       .  A
N118        N119   1.329       .  A
N118       Mn148   2.261       .  S
N119        C127   1.361       .  A
N120        N121   1.312       .  A
N120        N122   1.314       .  A
N120       Mn126   2.140   1_455  S
N121        C128   1.335       .  A
N122        N123   1.333       .  A
N122       Mn148   2.275       .  S
N123        C128   1.368       .  A
N124        N125   1.316       .  A
N124       Mn126   2.158   1_455  S
N125        C127   1.338       .  A
Mn126      Cl150   2.553   1_655  S
C127        C343   1.442       .  S
C128        C353   1.446       .  S
N129        N130   1.332       .  A
N129        N135   1.315       .  A
N129       Mn137   2.274       .  S
N130        C138   1.367       .  A
N131        N133   1.314       .  A
N131        N132   1.318       .  A
N131       Mn149   2.158   1_655  S
N132        C139   1.342       .  A
N133        N134   1.329       .  A
N133       Mn137   2.267       .  S
N134        C139   1.364       .  A
N135        N136   1.315       .  A
N135       Mn149   2.157   1_655  S
N136        C138   1.337       .  A
Mn137      Cl150   2.532   1_655  S
C138        C347   1.451       .  S
C139        C341   1.450       .  S
N140        N141   1.336       .  A
N140        N146   1.316       .  A
N140       Mn148   2.273       .  S
N141        C151   1.367       .  A
N142        N143   1.313       .  A
N142        N144   1.316       .  A
N142       Mn149   2.137       .  S
N143        C152   1.333       .  A
N144        N145   1.332       .  A
N144       Mn148   2.269       .  S
N145        C152   1.364       .  A
N146        N147   1.306       .  A
N146       Mn149   2.132       .  S
N147        C151   1.332       .  A
Mn148      Cl150   2.534       .  S
Mn149      Cl150   2.547       .  S
C151        C344   1.440       .  S
C152        C348   1.443       .  S
N153        C157   1.365       .  A
N153        C154   1.372       .  A
N153        C204   1.482       .  S
C154        C337   1.440       .  S
C154        C155   1.382       .  A
C155        C156   1.358       .  A
C155        H158   1.084       .  S
C156        C157   1.374       .  A
C156        H159   1.083       .  S
C157        C356   1.438       .  S
N160        C164   1.372       .  A
N160        C161   1.371       .  A
N160        C201   1.489       .  S
C161        C355   1.443       .  S
C161        C162   1.376       .  A
C162        C163   1.358       .  A
C162        H165   1.084       .  S
C163        C164   1.376       .  A
C163        H166   1.083       .  S
C164        C335   1.444       .  S
N167        C171   1.375       .  A
N167        C168   1.366       .  A
N167        C202   1.481       .  S
C168        C363   1.434       .  S
C168        C169   1.373       .  A
C169        C170   1.354       .  A
C169        H172   1.083       .  S
C170        C171   1.383       .  A
C170        H173   1.085       .  S
C171        C332   1.441       .  S
N174        C178   1.379       .  A
N174        C175   1.380       .  A
N174        C203   1.493       .  S
C175        C331   1.453       .  S
C175        C176   1.376       .  A
C176        C177   1.356       .  A
C176        H179   1.084       .  S
C177        C178   1.374       .  A
C177        H180   1.083       .  S
C178        C359   1.454       .  S
N181        C186   1.365   1_554  A
N181        C185   1.365       .  A
N181        H213   1.043       .  S
N182        C189   1.361   1_565  A
N182        C190   1.361       .  A
N183        C188   1.367       .  A
N183        C187   1.368   1_556  A
N183        H214   1.042   1_556  S
N184        C191   1.365   1_565  A
N184        C192   1.363       .  A
C185        C193   1.381       .  A
C185        C201   1.432       .  A
C186        C202   1.442       .  A
C186        C194   1.391       .  A
C187        C195   1.390       .  A
C187        C204   1.443       .  A
C188        C203   1.432       .  A
C188        C196   1.380       .  A
C189        C201   1.429       .  A
C189        C197   1.384       .  A
C190        C204   1.427       .  A
C190        C198   1.382       .  A
C191        C199   1.381       .  A
C191        C202   1.429       .  A
C192        C200   1.383       .  A
C192        C203   1.432       .  A
C193        C194   1.382   1_554  A
C193        H205   1.081       .  S
C194        H206   1.080       .  S
C195        C196   1.381   1_554  A
C195        H207   1.079       .  S
C196        H208   1.082       .  S
C197        C198   1.380   1_545  A
C197        H209   1.081       .  S
C198        H210   1.081       .  S
C199        C200   1.378   1_545  A
C199        H211   1.081       .  S
C200        H212   1.080       .  S
N215        C219   1.366       .  A
N215        C216   1.365       .  A
N215        C266   1.482       .  S
C216        C345   1.458       .  S
C216        C217   1.383       .  A
C217        C218   1.361       .  A
C217        H220   1.084       .  S
C218        C219   1.375       .  A
C218        H221   1.083       .  S
C219        C328   1.442       .  S
N222        C226   1.374       .  A
N222        C223   1.361       .  A
N222        C264   1.485       .  S
C223        C327   1.438       .  S
C223        C224   1.374       .  A
C224        C225   1.359       .  A
C224        H227   1.083       .  S
C225        C226   1.384       .  A
C225        H228   1.085       .  S
C226        C339   1.453       .  S
N229        C233   1.383       .  A
N229        C230   1.376       .  A
N229        C265   1.498       .  S
C230        C342   1.438       .  S
C230        C231   1.376       .  A
C231        C232   1.353       .  A
C231        H234   1.084       .  S
C232        C233   1.376       .  A
C232        H235   1.084       .  S
C233        C324   1.447       .  S
N236        C240   1.381       .  A
N236        C237   1.382       .  A
N236        C263   1.496       .  S
C237        C322   1.442       .  S
C237        C238   1.379       .  A
C238        C239   1.351       .  A
C238        H241   1.084       .  S
C239        C240   1.373       .  A
C239        H242   1.083       .  S
C240        C340   1.448       .  S
N243        C248   1.368   1_565  A
N243        C247   1.371       .  A
N243        H275   1.046       .  S
N244        C251   1.366       .  A
N244        C252   1.364   1_655  A
N245        C250   1.366   1_565  A
N245        C249   1.359       .  A
N245        H276   1.034       .  S
N246        C253   1.363       .  A
N246        C254   1.365   1_655  A
C247        C255   1.382       .  A
C247        C263   1.443       .  A
C248        C264   1.453       .  A
C248        C256   1.393       .  A
C249        C257   1.382       .  A
C249        C266   1.426       .  A
C250        C265   1.430       .  A
C250        C258   1.383       .  A
C251        C263   1.441       .  A
C251        C259   1.389       .  A
C252        C266   1.429       .  A
C252        C260   1.379       .  A
C253        C261   1.381       .  A
C253        C264   1.428       .  A
C254        C262   1.382       .  A
C254        C265   1.435       .  A
C255        C256   1.388   1_565  A
C255        H267   1.081       .  S
C256        H268   1.079       .  S
C257        C258   1.377   1_565  A
C257        H269   1.082       .  S
C258        H270   1.078       .  S
C259        C260   1.374   1_655  A
C259        H271   1.080       .  S
C260        H272   1.082       .  S
C261        C262   1.379   1_655  A
C261        H273   1.081       .  S
C262        H274   1.081       .  S
N277        N278   1.331       .  A
N277        N283   1.315       .  A
N277       Mn306   2.263       .  S
N278        C285   1.365       .  A
N279        N281   1.316       .  A
N279        N280   1.316       .  A
N279       Mn295   2.156   1_545  S
N280        C286   1.339       .  A
N281        N282   1.331       .  A
N281       Mn306   2.270       .  S
N282        C286   1.365       .  A
N283        N284   1.313       .  A
N283       Mn295   2.145   1_545  S
N284        C285   1.335       .  A
C285        C334   1.442       .  S
C286        C325   1.449       .  S
N287        N293   1.315       .  A
N287        N288   1.328       .  A
N287       Mn317   2.254       .  S
N288        C296   1.362       .  A
N289        N290   1.316       .  A
N289        N291   1.317       .  A
N289       Mn295   2.151       .  S
N290        C297   1.337       .  A
N291        N292   1.329       .  A
N291       Mn317   2.265       .  S
N292        C297   1.362       .  A
N293        N294   1.311       .  A
N293       Mn295   2.137       .  S
N294        C296   1.336       .  A
Mn295      Cl319   2.554       .  S
C296        C329   1.432       .  S
C297        C336   1.441       .  S
N298        N299   1.332       .  A
N298        N304   1.316       .  A
N298       Mn306   2.273       .  S
N299        C307   1.365       .  A
N300        N302   1.314       .  A
N300        N301   1.306       .  A
N300       Mn318   2.114   1_545  S
N301        C308   1.329       .  A
N302        N303   1.335       .  A
N302       Mn306   2.269       .  S
N303        C308   1.367       .  A
N304        N305   1.313       .  A
N304       Mn318   2.138   1_545  S
N305        C307   1.333       .  A
Mn306      Cl319   2.526   1_545  S
C307        C333   1.443       .  S
C308        C326   1.432       .  S
N309        N310   1.333       .  A
N309        N315   1.313       .  A
N309       Mn317   2.271       .  S
N310        C320   1.366       .  A
N311        N312   1.315       .  A
N311        N313   1.315       .  A
N311       Mn318   2.139       .  S
N312        C321   1.335       .  A
N313        N314   1.334       .  A
N313       Mn317   2.294       .  S
N314        C321   1.369       .  A
N315        N316   1.316       .  A
N315       Mn318   2.145       .  S
N316        C320   1.336       .  A
Mn317      Cl319   2.520       .  S
Mn318      Cl319   2.555       .  S
C320        C323   1.450       .  S
C321        C330   1.453       .  S
C322        C323   1.216       .  T
C324        C325   1.216       .  T
C326        C327   1.208       .  T
C328        C329   1.206       .  T
C330        C331   1.218       .  T
C332        C333   1.212       .  T
C334        C335   1.212       .  T
C336        C337   1.210       .  T
C338        C339   1.215       .  T
C340        C341   1.214       .  T
C342        C343   1.210       .  T
C344        C345   1.215       .  T
C346        C347   1.217       .  T
C348        C349   1.212       .  T
C350        C351   1.215       .  T
C352        C353   1.215       .  T
C354        C355   1.211       .  T
C356        C357   1.209       .  T
C358        C359   1.219       .  T
C360        C361   1.213       .  T
C362        C363   1.206       .  T
C364        C365   1.207       .  T
C366        C367   1.211       .  T
C368        C369   1.204       .  T
