geometry optimzed in LAMMPS
_audit_creation_date              2020-11-30 
_audit_creation_method            'lammps2cif' 
_symmetry_space_group_name_H-M    'P1' 
_symmetry_Int_Tables_number       1 
_symmetry_cell_setting            triclinic 
loop_ 
_symmetry_equiv_pos_as_xyz 
  x,y,z 
_cell_length_a                    43.0602633 
_cell_length_b                    42.99485631597963 
_cell_length_c                    37.47333122642444 
_cell_angle_alpha                 89.97710027934502 
_cell_angle_beta                  90.0857291450547 
_cell_angle_gamma                 89.83193115985105 
loop_ 
_atom_site_label 
_atom_site_type_symbol 
_atom_site_fract_x 
_atom_site_fract_y 
_atom_site_fract_z 
_atom_site_charge 
C1          C  0.75593457  0.76344992  0.77840115     0.03300
C2          C  0.77928368  0.74030939  0.77857589     0.03300
C3          C  0.77591435  0.71418751  0.75630677    -0.17200
C4          C  0.74996029  0.71089961  0.73360647     0.03300
C5          C  0.72625766  0.73377991  0.73439389     0.03300
C6          C  0.72959554  0.75972317  0.75676625    -0.17200
H7          H  0.71165710  0.77745819  0.75701258     0.05300
H8          H  0.79389572  0.69650848  0.75622528     0.05300
C9          C  0.78022265  0.23883568  0.76206414     0.03300
C10         C  0.75653725  0.21618554  0.76302529     0.03300
C11         C  0.73079125  0.21917954  0.74008387    -0.17200
C12         C  0.72756210  0.24487703  0.71715881     0.03300
C13         C  0.75135625  0.26754909  0.71646153     0.03300
C14         C  0.77750430  0.26396494  0.73852413    -0.17200
H15         H  0.79551811  0.28158094  0.73825725     0.05300
H16         H  0.71257201  0.20183045  0.74095075     0.05300
C17         C  0.22790476  0.24675059  0.77780861     0.03300
C18         C  0.25147275  0.22365426  0.77854749     0.03300
C19         C  0.27623317  0.22551352  0.75416153    -0.17200
C20         C  0.27847025  0.25029877  0.72974604     0.03300
C21         C  0.25551137  0.27389185  0.72997630     0.03300
C22         C  0.23052852  0.27163750  0.75379403    -0.17200
H23         H  0.21284793  0.28969475  0.75374763     0.05300
H24         H  0.29413680  0.20765866  0.75444029     0.05300
C25         C  0.22757971  0.75987674  0.77348026     0.03300
C26         C  0.24776536  0.78583755  0.77356052     0.03300
C27         C  0.27341770  0.78603991  0.75036200    -0.17200
C28         C  0.27962397  0.76078016  0.72757242     0.03300
C29         C  0.25897217  0.73520756  0.72654172     0.03300
C30         C  0.23325331  0.73519875  0.74959378    -0.17200
H31         H  0.21718471  0.71589906  0.74864208     0.05300
H32         H  0.28923539  0.80555145  0.75086690     0.05300
C33         C  0.23283463  0.75261440  0.22941239     0.03300
C34         C  0.25391370  0.77780361  0.23166247     0.03300
C35         C  0.27939045  0.77588982  0.25505149    -0.17200
C36         C  0.28410054  0.74977245  0.27694898     0.03300
C37         C  0.26204103  0.72542734  0.27633028     0.03300
C38         C  0.23688065  0.72697629  0.25233785    -0.17200
H39         H  0.22054595  0.70790049  0.25122644     0.05300
H40         H  0.29600118  0.79475067  0.25577086     0.05300
C41         C  0.75395779  0.77644120  0.22520935     0.03300
C42         C  0.77675759  0.75266390  0.22559720     0.03300
C43         C  0.77283849  0.72724974  0.24880886    -0.17200
C44         C  0.74741349  0.72546376  0.27241911     0.03300
C45         C  0.72550025  0.75015499  0.27322987     0.03300
C46         C  0.72910620  0.77520709  0.24950673    -0.17200
H47         H  0.71185405  0.79366236  0.24935392     0.05300
H48         H  0.79017920  0.70888421  0.24904147     0.05300
C49         C  0.73909919  0.23469650  0.20691008     0.03300
C50         C  0.76481936  0.25482245  0.21062468     0.03300
C51         C  0.76371859  0.27879392  0.23594024    -0.17200
C52         C  0.73793380  0.28288026  0.25821884     0.03300
C53         C  0.71231471  0.26247101  0.25506327     0.03300
C54         C  0.71297044  0.23908758  0.22881378    -0.17200
H55         H  0.69362460  0.22305379  0.22669468     0.05300
H56         H  0.78323456  0.29461426  0.23828848     0.05300
O57         O  0.48693012  0.84413417  0.47481326    -0.84300
O58         O  0.46359501  0.78891053  0.45190076    -0.81300
C59         C  0.45944361  0.76010919  0.44825631     0.99200
O60         O  0.46974580  0.74116991  0.47147068    -0.81400
O61         O  0.53364825  0.74632642  0.46388839    -0.84000
C62         C  0.56007308  0.75908729  0.46455793     1.03700
O63         O  0.56663911  0.77802252  0.48927404    -0.76800
O64         O  0.53410052  0.82781787  0.46417014    -0.77000
C65         C  0.51069999  0.84350134  0.45506624     1.03600
O66         O  0.47142212  0.82722535  0.54769710    -0.84300
O67         O  0.44253739  0.77467081  0.52211641    -0.81400
C68         C  0.45014055  0.75645088  0.54706533     0.99200
O69         O  0.47726302  0.74518675  0.54840150    -0.81400
O70         O  0.54125662  0.74373681  0.54117368    -0.84000
C71         C  0.55071375  0.76336657  0.56407938     1.03700
O72         O  0.54490327  0.79185758  0.55991107    -0.76800
O73         O  0.51765559  0.84551078  0.53642854    -0.77000
C74         C  0.49357183  0.84505083  0.55584461     1.03600
Cr75       Cr  0.46860070  0.80745811  0.49968559     1.93700
Cr76       Cr  0.50542527  0.74675464  0.50623209     1.93200
Cr77       Cr  0.53839889  0.80941426  0.51205227     1.39100
O78         O  0.50412870  0.78777923  0.50608581    -1.22000
O79         O  0.64892962  0.97364289  0.96319467    -0.84300
O80         O  0.70591612  0.95221628  0.94157740    -0.81300
C81         C  0.73476400  0.94767048  0.93934352     0.99200
O82         O  0.75306846  0.95950518  0.96242181    -0.81400
O83         O  0.74765850  0.02334883  0.95131481    -0.84000
C84         C  0.73429847  0.04953580  0.94974102     1.03700
O85         O  0.71213163  0.05600336  0.97073599    -0.76800
O86         O  0.66333725  0.02030725  0.94817127    -0.77000
C87         C  0.64781685  0.99620670  0.94165107     1.03600
O88         O  0.66690884  0.96221592  0.03610509    -0.84300
O89         O  0.72042853  0.93468886  0.01276156    -0.81400
C90         C  0.73574286  0.94395229  0.03935336     0.99200
O91         O  0.74688119  0.97111653  0.03935626    -0.81400
O92         O  0.74721442  0.03545312  0.02704798    -0.84000
C93         C  0.72615980  0.04675339  0.04705348     1.03700
O94         O  0.69843221  0.03856333  0.04283308    -0.76800
O95         O  0.64685280  0.00768607  0.02312427    -0.77000
C96         C  0.64878754  0.98428205  0.04378126     1.03600
Cr97       Cr  0.68674123  0.95824933  0.98868380     1.93700
Cr98       Cr  0.74599398  0.99705691  0.99498761     1.93200
Cr99       Cr  0.68170088  0.02826362  0.99583897     1.39100
O100        O  0.70492815  0.99470649  0.99306965    -1.22000
O101        O  0.32006149  0.03142850  0.97083437    -0.84300
O102        O  0.26995158  0.06324752  0.99546330    -0.81300
C103        C  0.25285258  0.05710712  0.96898369     0.99200
O104        O  0.23917637  0.03117940  0.96752421    -0.81400
O105        O  0.23309215  0.96718282  0.97433849    -0.84000
C106        C  0.25260935  0.95691308  0.95176135     1.03700
O107        O  0.28124363  0.96099972  0.95650574    -0.76800
O108        O  0.33619183  0.98401849  0.98064226    -0.77000
C109        C  0.33618906  0.00837659  0.96152794     1.03600
O110        O  0.33592169  0.01359695  0.04311877    -0.84300
O111        O  0.28221037  0.04031424  0.06559217    -0.81400
C112        C  0.25407020  0.04778779  0.06837089     0.99200
O113        O  0.23458378  0.03878534  0.04494956    -0.81400
O114        O  0.23472947  0.97405991  0.05126460    -0.84000
C115        C  0.24564071  0.94673822  0.05000563     1.03700
O116        O  0.26519318  0.93937879  0.02624746    -0.76800
O117        O  0.31710060  0.96736795  0.05322038    -0.77000
C118        C  0.33370248  0.98989310  0.06292971     1.03600
Cr119      Cr  0.30071003  0.03482829  0.01826589     1.93700
Cr120      Cr  0.23800502  0.00272117  0.00966584     1.93200
Cr121      Cr  0.29872144  0.96534783  0.00466546     1.39100
O122        O  0.27902987  0.00087276  0.01097869    -1.22000
O123        O  0.51705571  0.15321649  0.46519346    -0.84300
O124        O  0.54237558  0.20815595  0.44340724    -0.81300
C125        C  0.54591827  0.23698921  0.43882757     0.99200
O126        O  0.53484243  0.25637334  0.46119359    -0.81400
O127        O  0.47094317  0.25288670  0.45239454    -0.84000
C128        C  0.44463977  0.23990502  0.45174793     1.03700
O129        O  0.43778477  0.22028769  0.47554400    -0.76800
O130        O  0.47111472  0.17079919  0.45084450    -0.77000
C131        C  0.49396875  0.15350375  0.44417212     1.03600
O132        O  0.52933140  0.17154374  0.53901424    -0.84300
O133        O  0.56102099  0.22258865  0.51430181    -0.81400
C134        C  0.55354696  0.24206944  0.53800710     0.99200
O135        O  0.52630478  0.25318062  0.53855664    -0.81400
O136        O  0.46177420  0.25420704  0.52957164    -0.84000
C137        C  0.45114982  0.23379522  0.55094326     1.03700
O138        O  0.45708041  0.20545491  0.54617263    -0.76800
O139        O  0.48462465  0.15208653  0.52335556    -0.77000
C140        C  0.50668867  0.15392901  0.54554638     1.03600
Cr141      Cr  0.53498348  0.19013617  0.49088568     1.93700
Cr142      Cr  0.49854965  0.25143091  0.49547513     1.93200
Cr143      Cr  0.46508928  0.18864566  0.49863785     1.39100
O144        O  0.49954586  0.21032901  0.49488037    -1.22000
C145        C  0.49686980  0.99298730  0.25015110    -0.01400
C146        C  0.48148942  0.00954466  0.75222644    -0.01400
O147        O  0.84547582  0.47651387  0.51862070    -0.84300
O148        O  0.79175835  0.45305299  0.54378301    -0.81300
C149        C  0.76347193  0.44838619  0.54969656     0.99200
O150        O  0.74289220  0.45963268  0.52888318    -0.81400
O151        O  0.74722071  0.52324623  0.53899971    -0.84000
C152        C  0.75947063  0.54986423  0.53899419     1.03700
O153        O  0.77878974  0.55716535  0.51496055    -0.76800
O154        O  0.83045952  0.52329470  0.53405605    -0.77000
C155        C  0.84731115  0.49971992  0.53923449     1.03600
O156        O  0.82380521  0.46486174  0.44680305    -0.84300
O157        O  0.77278189  0.43474496  0.47378168    -0.81400
C158        C  0.75328641  0.44372580  0.45072967     0.99200
O159        O  0.74248997  0.47097791  0.45194527    -0.81400
O160        O  0.74148565  0.53450094  0.46280008    -0.84000
C161        C  0.76046942  0.54471330  0.43962404     1.03700
O162        O  0.78894954  0.53872195  0.44235103    -0.76800
O163        O  0.84314592  0.51045649  0.45987615    -0.77000
C164        C  0.84169682  0.48705666  0.43938308     1.03600
Cr165      Cr  0.80703904  0.45981334  0.49547843     1.93700
Cr166      Cr  0.74625638  0.49694267  0.49552208     1.93200
Cr167      Cr  0.80881832  0.53004193  0.48824288     1.39100
O168        O  0.78727083  0.49567452  0.49318624    -1.22000
O169        O  0.01605211  0.64607932  0.97840764    -0.84300
O170        O  0.04534513  0.69819732  0.95195039    -0.81300
C171        C  0.05208414  0.72646746  0.94713888     0.99200
O172        O  0.04210083  0.74707858  0.96870097    -0.81400
O173        O  0.97784613  0.74834932  0.96141045    -0.84000
C174        C  0.95043160  0.73786109  0.96221318     1.03700
O175        O  0.94241891  0.71942498  0.98684429    -0.76800
O176        O  0.97078846  0.66561744  0.96478985    -0.77000
C177        C  0.99252473  0.64683506  0.95819931     1.03600
O178        O  0.03230663  0.66627788  0.04960446    -0.84300
O179        O  0.06667233  0.71342301  0.02137206    -0.81400
C180        C  0.06152452  0.73355078  0.04511477     0.99200
O181        O  0.03537201  0.74717828  0.04596481    -0.81400
O182        O  0.97058284  0.75384371  0.03883937    -0.84000
C183        C  0.95906078  0.73533099  0.06180594     1.03700
O184        O  0.96251940  0.70646344  0.05830537    -0.76800
O185        O  0.98517630  0.65021436  0.03882771    -0.77000
C186        C  0.00876310  0.65107558  0.05906155     1.03600
Cr187      Cr  0.03757253  0.68244535  0.00064434     1.93700
Cr188      Cr  0.00625527  0.74637440  0.00385432     1.93200
Cr189      Cr  0.96780532  0.68672948  0.01159470     1.39100
O190        O  0.00383803  0.70537358  0.00513854    -1.22000
O191        O  0.02813522  0.33070826  0.03984885    -0.84300
O192        O  0.05796254  0.27826591  0.01706576    -0.81300
C193        C  0.04882786  0.26250498  0.04341269     0.99200
O194        O  0.02221642  0.25017931  0.04237289    -0.81400
O195        O  0.95878956  0.24837455  0.02874694    -0.84000
C196        C  0.94816404  0.26872738  0.05013537     1.03700
O197        O  0.95464901  0.29693516  0.04587639    -0.76800
O198        O  0.98300460  0.34989676  0.02468311    -0.77000
C199        C  0.00566244  0.34867179  0.04622277     1.03600
O200        O  0.01719977  0.34828377  0.96649530    -0.84300
O201        O  0.04102362  0.29271432  0.94552890    -0.81400
C202        C  0.04626329  0.26402846  0.94277868     0.99200
O203        O  0.03500282  0.24506768  0.96544017    -0.81400
O204        O  0.97149166  0.24943505  0.95260964    -0.84000
C205        C  0.94557001  0.26325183  0.95032328     1.03700
O206        O  0.93755457  0.28248015  0.97416036    -0.76800
O207        O  0.97084709  0.33235906  0.95143879    -0.77000
C208        C  0.99451322  0.34847011  0.94508780     1.03600
Cr209      Cr  0.03373543  0.31128375  0.99252304     1.93700
Cr210      Cr  0.99699901  0.25077216  0.99722858     1.93200
Cr211      Cr  0.96379205  0.31395543  0.99879852     1.39100
O212        O  0.99806931  0.29189759  0.99602291    -1.22000
O213        O  0.18609653  0.46893792  0.46097704    -0.84300
O214        O  0.23724006  0.44021260  0.48938471    -0.81300
C215        C  0.25582714  0.44843373  0.46510125     0.99200
O216        O  0.26722260  0.47549281  0.46546030    -0.81400
O217        O  0.26843929  0.53972042  0.47356773    -0.84000
C218        C  0.24960605  0.54907173  0.44961820     1.03700
O219        O  0.22126998  0.54241941  0.45176417    -0.76800
O220        O  0.16707497  0.51531677  0.47110774    -0.77000
C221        C  0.16904805  0.49133301  0.45168855     1.03600
O222        O  0.16448824  0.48439742  0.53186513    -0.84300
O223        O  0.21870483  0.46111421  0.55861362    -0.81400
C224        C  0.24707183  0.45598976  0.56409492     0.99200
O225        O  0.26742940  0.46692337  0.54290349    -0.81400
O226        O  0.26273943  0.53198518  0.55045027    -0.84000
C227        C  0.24969387  0.55842199  0.54846054     1.03700
O228        O  0.23116265  0.56400226  0.52302946    -0.76800
O229        O  0.17999473  0.53152946  0.54425547    -0.77000
C230        C  0.16245401  0.50884238  0.55058945     1.03600
Cr231      Cr  0.20300390  0.46616415  0.50992038     1.93700
Cr232      Cr  0.26382649  0.50329652  0.50803678     1.93200
Cr233      Cr  0.20134498  0.53592940  0.49813626     1.39100
O234        O  0.22282710  0.50183156  0.50552977    -1.22000
C235        C  0.01061715  0.49828790  0.25591068    -0.01400
C236        C  0.00067268  0.50267690  0.74467174    -0.01400
C237        C  0.24120851  0.23229043  0.23087586     0.03300
C238        C  0.21740770  0.25521667  0.22994713     0.03300
C239        C  0.22010957  0.28168085  0.25184471    -0.17200
C240        C  0.24626885  0.28625649  0.27372449     0.03300
C241        C  0.27024447  0.26365522  0.27423199     0.03300
C242        C  0.26725287  0.23702856  0.25290268    -0.17200
H243        H  0.28511178  0.21924909  0.25425212     0.05300
H244        H  0.20200270  0.29922353  0.25133036     0.05300
C245        C  0.05460911  0.53561160  0.67213320    -0.27200
C246        C  0.07627344  0.51163627  0.66799716     0.06500
C247        C  0.07635586  0.48669488  0.69200719     0.26100
C248        C  0.05355543  0.48458640  0.71824989    -0.11600
C249        C  0.03014216  0.50760921  0.72151441    -0.25600
C250        C  0.03176601  0.53370897  0.69839629     0.36900
C251        C  0.09749447  0.51169570  0.63725717     0.06500
F252        F  0.09794319  0.46373736  0.68923763    -0.19400
H253        H  0.05349902  0.46366407  0.73415613     0.16300
F254        F  0.01016997  0.55672594  0.70001716    -0.23100
H255        H  0.05447972  0.55515192  0.65386560     0.18100
C256        C  0.09624059  0.48765299  0.61195460     0.26100
C257        C  0.11707077  0.48717421  0.58349405    -0.11600
C258        C  0.13936535  0.51075026  0.57966985    -0.25600
C259        C  0.13987886  0.53535801  0.60456699     0.37000
C260        C  0.11899019  0.53576409  0.63303578    -0.27300
F261        F  0.07465631  0.46480759  0.61464994    -0.19400
H262        H  0.11582892  0.46818577  0.56453314     0.16300
F263        F  0.16098591  0.55863997  0.60205088    -0.23100
H264        H  0.11998563  0.55455232  0.65226558     0.18100
C265        C  0.12042224  0.46345016  0.37356883    -0.27200
C266        C  0.11473973  0.49181007  0.35598052     0.06500
C267        C  0.12906539  0.51900899  0.36850416     0.26100
C268        C  0.14697018  0.51829320  0.39938705    -0.11600
C269        C  0.15147398  0.49037407  0.41804952    -0.25600
C270        C  0.13888984  0.46265306  0.40440801     0.36900
C271        C  0.09046924  0.49410109  0.32820758     0.06500
F272        F  0.12485164  0.54658139  0.35147360    -0.19400
H273        H  0.15705226  0.53966853  0.40893927     0.16300
F274        F  0.14280365  0.43529427  0.42196926    -0.23100
H275        H  0.10932616  0.44240942  0.36457726     0.18100
C276        C  0.09004036  0.47467408  0.29811328     0.26100
C277        C  0.06535859  0.47642525  0.27373695    -0.11600
C278        C  0.04020669  0.49705359  0.27956606    -0.25600
C279        C  0.04254167  0.51818955  0.30843045     0.37000
C280        C  0.06678585  0.51607605  0.33270152    -0.27300
F281        F  0.11359345  0.45430668  0.29208246    -0.19400
H282        H  0.06628612  0.46161714  0.25061738     0.16300
F283        F  0.01993499  0.53958554  0.31470722    -0.23100
H284        H  0.06658917  0.53124288  0.35568781     0.18100
C285        C  0.26375908  0.41434418  0.37241414    -0.27200
C286        C  0.26088670  0.38240272  0.37975342     0.06500
C287        C  0.26161404  0.37243680  0.41552186     0.26100
C288        C  0.26197644  0.39413895  0.44323945    -0.11600
C289        C  0.26258636  0.42617449  0.43598593    -0.25600
C290        C  0.26476077  0.43612386  0.40028091     0.36900
C291        C  0.25545595  0.35970720  0.35045410     0.06500
F292        F  0.26126575  0.34167076  0.42370343    -0.19400
H293        H  0.26076348  0.38589456  0.47054778     0.16300
F294        F  0.26530792  0.46689707  0.39221501    -0.23100
H295        H  0.26361964  0.42255768  0.34506377     0.18100
C296        C  0.23095888  0.33811871  0.35273972     0.26100
C297        C  0.22695217  0.31557376  0.32632874    -0.11600
C298        C  0.24743785  0.31383878  0.29740126    -0.25600
C299        C  0.27081709  0.33639980  0.29384592     0.37000
C300        C  0.27467616  0.35926291  0.32015047    -0.27300
F301        F  0.21099761  0.33857867  0.38073536    -0.19400
H302        H  0.20880622  0.29846022  0.32935550     0.16300
F303        F  0.29037441  0.33573080  0.26548272    -0.23100
H304        H  0.29332412  0.37589793  0.31750624     0.18100
C305        C  0.98115083  0.40675257  0.11694408    -0.27200
C306        C  0.00650122  0.40578530  0.14047001     0.06500
C307        C  0.03114951  0.38522732  0.13361547     0.26100
C308        C  0.03078535  0.36668898  0.10291699    -0.11600
C309        C  0.00581741  0.36837248  0.07864194    -0.25600
C310        C  0.98071122  0.38835031  0.08633874     0.36900
C311        C  0.00808671  0.42854195  0.16992511     0.06500
F312        F  0.05610922  0.38404467  0.15574239    -0.19400
H313        H  0.05022687  0.35128870  0.09797440     0.16300
F314        F  0.95579005  0.39050493  0.06423588    -0.23100
H315        H  0.96188225  0.42232480  0.12198706     0.18100
C316        C  0.00531262  0.46019968  0.16213113     0.26100
C317        C  0.00544369  0.48209124  0.18932906    -0.11600
C318        C  0.01014928  0.47348268  0.22552906    -0.25600
C319        C  0.01170813  0.44120255  0.23317058     0.37000
C320        C  0.01114799  0.41909417  0.20559889    -0.27300
F321        F  0.00249712  0.47017282  0.12786912    -0.19400
H322        H  0.00110060  0.50553897  0.18124254     0.16300
F323        F  0.01386675  0.43094812  0.26733524    -0.23100
H324        H  0.01258298  0.39472726  0.21208117     0.18100
C325        C  0.97184150  0.39883538  0.86685816    -0.27200
C326        C  0.00071907  0.40308445  0.85012882     0.06500
C327        C  0.02725344  0.38860841  0.86449074     0.26100
C328        C  0.02497820  0.37114288  0.89567910    -0.11600
C329        C  0.99619318  0.36728303  0.91256630    -0.25600
C330        C  0.96946314  0.38075636  0.89760562     0.36900
C331        C  0.00327039  0.42493584  0.81989198     0.06500
F332        F  0.05533445  0.39130148  0.84837222    -0.19400
H333        H  0.04571185  0.36027031  0.90643940     0.16300
F334        F  0.94132256  0.37750771  0.91344441    -0.23100
H335        H  0.95121243  0.41034831  0.85678060     0.18100
C336        C  0.98128608  0.42497500  0.79225311     0.26100
C337        C  0.98080442  0.44904035  0.76733813    -0.11600
C338        C  0.00311746  0.47312877  0.76830958    -0.25600
C339        C  0.02626898  0.47160898  0.79520869     0.37000
C340        C  0.02604712  0.44806926  0.82065172    -0.27300
F341        F  0.95956305  0.40222916  0.78997418    -0.19400
H342        H  0.96173138  0.44911364  0.74857236     0.16300
F343        F  0.04848357  0.49381823  0.79792061    -0.23100
H344        H  0.04296662  0.44885540  0.84206505     0.18100
C345        C  0.08792413  0.23656034  0.13044858    -0.27200
C346        C  0.11424396  0.25598244  0.13043607     0.06500
C347        C  0.11709765  0.27849674  0.10354888     0.26100
C348        C  0.09551033  0.28017990  0.07606897    -0.11600
C349        C  0.07003487  0.25982753  0.07458862    -0.25600
C350        C  0.06574500  0.23858110  0.10280738     0.36900
C351        C  0.13985077  0.25239239  0.15681186     0.06500
F352        F  0.14102311  0.29900102  0.10372925    -0.19400
H353        H  0.09897575  0.29769425  0.05569227     0.16300
F354        F  0.04074995  0.21943137  0.10330556    -0.23100
H355        H  0.08503682  0.21929590  0.15122256     0.18100
C356        C  0.13462160  0.25382680  0.19382105     0.26100
C357        C  0.15987690  0.25444423  0.21759125    -0.11600
C358        C  0.19060966  0.25326245  0.20485455    -0.25600
C359        C  0.19565406  0.25119269  0.16791325     0.37000
C360        C  0.17056836  0.25037295  0.14434310    -0.27300
F361        F  0.10530526  0.25603981  0.20685192    -0.19400
H362        H  0.15550504  0.25610040  0.24602220     0.16300
F363        F  0.22489636  0.25126304  0.15445858    -0.23100
H364        H  0.17519396  0.24910850  0.11593383     0.18100
C365        C  0.02968015  0.62688976  0.15361911    -0.27200
C366        C  0.00899876  0.60233652  0.15944377     0.06500
C367        C  0.98774882  0.59426581  0.13253236     0.26100
C368        C  0.98754439  0.61033146  0.10007270    -0.11600
C369        C  0.00878194  0.63444494  0.09372423    -0.25600
C370        C  0.02956249  0.64296790  0.12117581     0.36900
C371        C  0.01232348  0.58221136  0.19114291     0.06500
F372        F  0.96838058  0.56970568  0.13698703    -0.19400
H373        H  0.97123669  0.60331318  0.07944715     0.16300
F374        F  0.04970087  0.66690045  0.11678339    -0.23100
H375        H  0.04644350  0.63320221  0.17411846     0.18100
C376        C  0.03863418  0.56331065  0.19441652     0.26100
C377        C  0.03856645  0.53851288  0.21825292    -0.11600
C378        C  0.01201959  0.53146217  0.23906141    -0.25600
C379        C  0.98825344  0.55434778  0.24046762     0.37000
C380        C  0.98794312  0.57873185  0.21557090    -0.27300
F381        F  0.06305113  0.56672151  0.17188130    -0.19400
H382        H  0.05819343  0.52260110  0.21756819     0.16300
F383        F  0.96532709  0.55361929  0.26514172    -0.23100
H384        H  0.96814439  0.59443656  0.21460173     0.18100
C385        C  0.01592176  0.58913103  0.88674799    -0.27200
C386        C  0.98966519  0.58895065  0.86457762     0.06500
C387        C  0.96351780  0.60667050  0.87431769     0.26100
C388        C  0.96420673  0.62499210  0.90522851    -0.11600
C389        C  0.99090041  0.62578349  0.92695687    -0.25600
C390        C  0.01674348  0.60743267  0.91738041     0.36900
C391        C  0.99030250  0.57027406  0.83138118     0.06500
F392        F  0.93777798  0.60711132  0.85336512    -0.19400
H393        H  0.94406182  0.63894214  0.91179745     0.16300
F394        F  0.04328137  0.60764964  0.93697755    -0.23100
H395        H  0.03604948  0.57519517  0.88014532     0.18100
C396        C  0.01568337  0.57227994  0.80804472     0.26100
C397        C  0.01827067  0.55210061  0.77906731    -0.11600
C398        C  0.99544345  0.52928467  0.77218002    -0.25600
C399        C  0.96938806  0.52828992  0.79535543     0.37000
C400        C  0.96688883  0.54861653  0.82430951    -0.27300
F401        F  0.03866515  0.59323318  0.81390379    -0.19400
H402        H  0.03931373  0.55349527  0.76367635     0.16300
F403        F  0.94690997  0.50653976  0.79098839    -0.23100
H404        H  0.94734636  0.54639384  0.84221628     0.18100
C405        C  0.89371587  0.47186399  0.61873072    -0.27200
C406        C  0.90943496  0.49909837  0.62862647     0.06500
C407        C  0.90552346  0.52618194  0.60800439     0.26100
C408        C  0.88521274  0.52628614  0.57893286    -0.11600
C409        C  0.86930804  0.49916303  0.56927219    -0.25600
C410        C  0.87393193  0.47177800  0.58915518     0.36900
C411        C  0.93058670  0.49890422  0.65975027     0.06500
F412        F  0.92200025  0.55227630  0.61536485    -0.19400
H413        H  0.88227359  0.54744196  0.56356785     0.16300
F414        F  0.85851933  0.44525985  0.58075232    -0.23100
H415        H  0.89653281  0.45073796  0.63418068     0.18100
C416        C  0.92867938  0.52201146  0.68609930     0.26100
C417        C  0.95034577  0.52297390  0.71380468    -0.11600
C418        C  0.97411129  0.50035099  0.71669340    -0.25600
C419        C  0.97528333  0.47683463  0.69011334     0.37000
C420        C  0.95367600  0.47608458  0.66240748    -0.27300
F421        F  0.90594632  0.54393025  0.68490772    -0.19400
H422        H  0.94879073  0.54240703  0.73202762     0.16300
F423        F  0.99780377  0.45467445  0.69056540    -0.23100
H424        H  0.95563074  0.45813558  0.64224622     0.18100
C425        C  0.88784384  0.45740852  0.35982499    -0.27200
C426        C  0.90277026  0.48472990  0.34893242     0.06500
C427        C  0.89658115  0.51271770  0.36673804     0.26100
C428        C  0.87617592  0.51326032  0.39555989    -0.11600
C429        C  0.86170752  0.48586128  0.40734954    -0.25600
C430        C  0.86724401  0.45789021  0.38871163     0.36900
C431        C  0.92877043  0.48335598  0.32359619     0.06500
F432        F  0.91158916  0.53921770  0.35738945    -0.19400
H433        H  0.87222094  0.53516294  0.40916933     0.16300
F434        F  0.85397544  0.43081625  0.39929316    -0.23100
H435        H  0.89308000  0.43551715  0.34677915     0.18100
C436        C  0.95843930  0.47717124  0.33674653     0.26100
C437        C  0.98413278  0.48023876  0.31470200    -0.11600
C438        C  0.98134347  0.49138779  0.27914317    -0.25600
C439        C  0.95083468  0.49342847  0.26498140     0.37000
C440        C  0.92485730  0.49042436  0.28736056    -0.27300
F441        F  0.96268829  0.46916019  0.37148960    -0.19400
H442        H  0.00617899  0.47392644  0.32633650     0.16300
F443        F  0.94611247  0.50012171  0.22999973    -0.23100
H444        H  0.90183411  0.49436836  0.27667287     0.18100
C445        C  0.51091808  0.13294613  0.64378835    -0.27200
C446        C  0.49561742  0.10410728  0.64424379     0.06500
C447        C  0.48578916  0.09109515  0.61158420     0.26100
C448        C  0.49010482  0.10712533  0.57956867    -0.11600
C449        C  0.50511254  0.13601123  0.57914832    -0.25600
C450        C  0.51584866  0.14869598  0.61151199     0.36900
C451        C  0.48998757  0.08714215  0.67826842     0.06500
F452        F  0.47235951  0.06256979  0.61046145    -0.19400
H453        H  0.48174761  0.09692492  0.55504432     0.16300
F454        F  0.52966417  0.17702873  0.61218524    -0.23100
H455        H  0.51841531  0.14360808  0.66840642     0.18100
C456        C  0.51377431  0.08207733  0.70339696     0.26100
C457        C  0.50977191  0.06031292  0.73088951    -0.11600
C458        C  0.48305144  0.04131587  0.73199054    -0.25600
C459        C  0.45748593  0.05060223  0.71041835     0.37000
C460        C  0.46105502  0.07326619  0.68415657    -0.27300
F461        F  0.54178181  0.09610734  0.69977132    -0.19400
H462        H  0.52871917  0.05727548  0.74947055     0.16300
F463        F  0.43008209  0.03511443  0.71156504    -0.23100
H464        H  0.44171247  0.07818042  0.66647796     0.18100
C465        C  0.47067667  0.11731117  0.35577455    -0.27200
C466        C  0.49503065  0.09616320  0.35036499     0.06500
C467        C  0.51862383  0.09349355  0.37602184     0.26100
C468        C  0.51809859  0.11215983  0.40647918    -0.11600
C469        C  0.49377393  0.13347777  0.41209476    -0.25600
C470        C  0.46990694  0.13583023  0.38636811     0.36900
C471        C  0.49352878  0.07381063  0.32071899     0.06500
F472        F  0.54133340  0.07175985  0.37241157    -0.19400
H473        H  0.53654268  0.10956709  0.42592313     0.16300
F474        F  0.44569429  0.15576902  0.39073004    -0.23100
H475        H  0.45193135  0.11898681  0.33656170     0.18100
C476        C  0.47034333  0.05126282  0.32096575     0.26100
C477        C  0.47142806  0.02690011  0.29677966    -0.11600
C478        C  0.49565273  0.02413908  0.27128587    -0.25600
C479        C  0.51684121  0.04915160  0.26854856     0.37000
C480        C  0.51626683  0.07323444  0.29389505    -0.27300
F481        F  0.44779222  0.05155018  0.34627800    -0.19400
H482        H  0.45425090  0.00890487  0.29942449     0.16300
F483        F  0.53783880  0.05101913  0.24180156    -0.23100
H484        H  0.53357250  0.09118321  0.29282972     0.18100
C485        C  0.40096349  0.27649193  0.37292927    -0.27200
C486        C  0.37399523  0.25810809  0.37225999     0.06500
C487        C  0.37124594  0.23353029  0.39666805     0.26100
C488        C  0.39431571  0.22812392  0.42201061    -0.11600
C489        C  0.42101259  0.24689247  0.42374550    -0.25600
C490        C  0.42434673  0.27103209  0.39852343     0.36900
C491        C  0.34830574  0.26413977  0.34666914     0.06500
F492        F  0.34624374  0.21436553  0.39573418    -0.19400
H493        H  0.39117391  0.20892929  0.44029852     0.16300
F494        F  0.44981345  0.28954291  0.39883017    -0.23100
H495        H  0.40361483  0.29540581  0.35405898     0.18100
C496        C  0.31785645  0.26835759  0.35934180     0.26100
C497        C  0.29277707  0.26871472  0.33569647    -0.11600
C498        C  0.29747655  0.26583469  0.29877971    -0.25600
C499        C  0.32809353  0.26297203  0.28589540     0.37000
C500        C  0.35328962  0.26221036  0.30970881    -0.27300
F501        F  0.31229294  0.27108627  0.39485405    -0.19400
H502        H  0.26952313  0.27015595  0.34644898     0.16300
F503        F  0.33352980  0.26013458  0.25036981    -0.23100
H504        H  0.37653533  0.25878213  0.29942627     0.18100
C505        C  0.37911212  0.96317508  0.14450727    -0.27200
C506        C  0.38551963  0.99189355  0.16089750     0.06500
C507        C  0.37184107  0.01904216  0.14692935     0.26100
C508        C  0.35475438  0.01784893  0.11537493    -0.11600
C509        C  0.35015001  0.98952822  0.09754749    -0.25600
C510        C  0.36122345  0.96189453  0.11323284     0.36900
C511        C  0.41058433  0.99425645  0.18795202     0.06500
F512        F  0.37610030  0.04700047  0.16303097    -0.19400
H513        H  0.34540138  0.03929121  0.10456574     0.16300
F514        F  0.35646470  0.93398377  0.09726504    -0.23100
H515        H  0.38948978  0.94197971  0.15463205     0.18100
C516        C  0.41305276  0.97370757  0.21703733     0.26100
C517        C  0.43989815  0.97357479  0.23835430    -0.11600
C518        C  0.46502437  0.99356484  0.23053103    -0.25600
C519        C  0.46025871  0.01661863  0.20406852     0.37000
C520        C  0.43402692  0.01623891  0.18258690    -0.27300
F521        F  0.38956961  0.95385558  0.22483098    -0.19400
H522        H  0.44068997  0.95783257  0.26077350     0.16300
F523        F  0.48233283  0.03827456  0.19710202    -0.23100
H524        H  0.43282464  0.03245782  0.16053069     0.18100
C525        C  0.38916210  0.98670154  0.88411160    -0.27200
C526        C  0.38570299  0.01259337  0.86161562     0.06500
C527        C  0.36619833  0.03712178  0.87227069     0.26100
C528        C  0.35065493  0.03571704  0.90498019    -0.11600
C529        C  0.35432387  0.00993016  0.92785722    -0.25600
C530        C  0.37384402  0.98535202  0.91698859     0.36900
C531        C  0.40507489  0.01488592  0.82907163     0.06500
F532        F  0.36208150  0.06236976  0.85099325    -0.19400
H533        H  0.33551575  0.05486185  0.91226220     0.16300
F534        F  0.37852544  0.96017014  0.93818612    -0.23100
H535        H  0.40455737  0.96781441  0.87660234     0.18100
C536        C  0.42687242  0.03880206  0.82592501     0.26100
C537        C  0.44953018  0.03746418  0.79945887    -0.11600
C538        C  0.45141872  0.01211929  0.77532346    -0.25600
C539        C  0.42656076  0.99054138  0.77561028     0.37000
C540        C  0.40432938  0.99148918  0.80297034    -0.27300
F541        F  0.42799371  0.06211632  0.85031443    -0.19400
H542        H  0.46735635  0.05515862  0.79956157     0.16300
F543        F  0.42324365  0.96849930  0.75012210    -0.23100
H544        H  0.38679077  0.97354098  0.80422592     0.18100
C545        C  0.21981552  0.11759602  0.11615332    -0.27200
C546        C  0.23984122  0.11980815  0.14564906     0.06500
C547        C  0.26151526  0.09597584  0.15190913     0.26100
C548        C  0.26423459  0.07124594  0.12793896    -0.11600
C549        C  0.24553564  0.06985068  0.09714017    -0.25600
C550        C  0.22266464  0.09289677  0.09190603     0.36900
C551        C  0.23995998  0.14823557  0.16791455     0.06500
F552        F  0.28082134  0.09722109  0.18055066    -0.19400
H553        H  0.28201688  0.05386828  0.13261566     0.16300
F554        F  0.20490593  0.09306471  0.06195792    -0.23100
H555        H  0.20313779  0.13593273  0.11085158     0.18100
C556        C  0.26618659  0.16759060  0.16841395     0.26100
C557        C  0.26610537  0.19490136  0.18856316    -0.11600
C558        C  0.24010964  0.20326937  0.20911126    -0.25600
C559        C  0.21412146  0.18339153  0.20933471     0.37000
C560        C  0.21391434  0.15639424  0.18835970    -0.27300
F561        F  0.29170781  0.16036219  0.14883484    -0.19400
H562        H  0.28638100  0.20969934  0.18796945     0.16300
F563        F  0.18933390  0.18952463  0.23052456    -0.23100
H564        H  0.19369712  0.14152875  0.18857246     0.18100
C565        C  0.60420108  0.95398190  0.12465076    -0.27200
C566        C  0.59437081  0.98183371  0.14068943     0.06500
C567        C  0.60294505  0.01023936  0.12515148     0.26100
C568        C  0.62041457  0.01078553  0.09362576    -0.11600
C569        C  0.62996109  0.98299204  0.07708457    -0.25600
C570        C  0.62215457  0.95446391  0.09339230     0.36900
C571        C  0.57108279  0.98139711  0.16981747     0.06500
F572        F  0.59319202  0.03747713  0.13966116    -0.19400
H573        H  0.62644576  0.03302064  0.08209444     0.16300
F574        F  0.63075103  0.92701616  0.07843991    -0.23100
H575        H  0.59726674  0.93189200  0.13585308     0.18100
C576        C  0.54016577  0.97511776  0.16137078     0.26100
C577        C  0.51711148  0.97796211  0.18715797    -0.11600
C578        C  0.52362423  0.98857608  0.22228140    -0.25600
C579        C  0.55548814  0.99133653  0.23150304     0.37000
C580        C  0.57877355  0.98875650  0.20525104    -0.27300
F581        F  0.53204331  0.96697843  0.12762311    -0.19400
H582        H  0.49393800  0.97151643  0.17884969     0.16300
F583        F  0.56416269  0.99746703  0.26559794    -0.23100
H584        H  0.60284161  0.99275488  0.21252407     0.18100
C585        C  0.60802547  0.01544048  0.85355407    -0.27200
C586        C  0.58687637  0.99080272  0.85068317     0.06500
C587        C  0.58802170  0.96662567  0.87593644     0.26100
C588        C  0.60814111  0.96845307  0.90507024    -0.11600
C589        C  0.62787859  0.99416493  0.90943949    -0.25600
C590        C  0.62848136  0.01714500  0.88258053     0.36900
C591        C  0.56087869  0.99278762  0.82482037     0.06500
F592        F  0.56891763  0.94168116  0.87302153    -0.19400
H593        H  0.60772332  0.94991499  0.92468366     0.16300
F594        F  0.64834195  0.04154045  0.88459126    -0.23100
H595        H  0.60765352  0.03419147  0.83420064     0.18100
C596        C  0.53036248  0.99171782  0.83742203     0.26100
C597        C  0.50552488  0.99625982  0.81432081    -0.11600
C598        C  0.50986553  0.00333263  0.77762398    -0.25600
C599        C  0.54080536  0.00148406  0.76466845     0.37000
C600        C  0.56594981  0.99729014  0.78819798    -0.27300
F601        F  0.52435912  0.98724920  0.87263137    -0.19400
H602        H  0.48289707  0.99366542  0.82608935     0.16300
F603        F  0.54689025  0.00434083  0.72929305    -0.23100
H604        H  0.58939700  0.99744626  0.77781403     0.18100
C605        C  0.46606839  0.88581607  0.64112633    -0.27200
C606        C  0.48961452  0.90798729  0.64594326     0.06500
C607        C  0.51492587  0.90801948  0.62228733     0.26100
C608        C  0.51587693  0.88744778  0.59349646    -0.11600
C609        C  0.49175936  0.86608223  0.58746065    -0.25600
C610        C  0.46703731  0.86498266  0.61219524     0.36900
C611        C  0.48659531  0.93299121  0.67320097     0.06500
F612        F  0.53868524  0.92834848  0.62676455    -0.19400
H613        H  0.53555956  0.88859660  0.57558426     0.16300
F614        F  0.44372157  0.84405818  0.60840745    -0.23100
H615        H  0.44638890  0.88531611  0.65914078     0.18100
C616        C  0.48770133  0.96409292  0.66237713     0.26100
C617        C  0.48600022  0.98800722  0.68725734    -0.11600
C618        C  0.48187305  0.98230659  0.72430460    -0.25600
C619        C  0.48180186  0.95058998  0.73504485     0.37000
C620        C  0.48354372  0.92639213  0.70973990    -0.27300
F621        F  0.49057573  0.97156765  0.62731319    -0.19400
H622        H  0.48904106  0.01103471  0.67639018     0.16300
F623        F  0.48008930  0.94288783  0.77010868    -0.23100
H624        H  0.48319920  0.90249095  0.71875439     0.18100
C625        C  0.49844251  0.91111964  0.29421544    -0.27200
C626        C  0.50866587  0.91824749  0.32876377     0.06500
C627        C  0.51718275  0.94869180  0.33701118     0.26100
C628        C  0.51394522  0.97200364  0.31175435    -0.11600
C629        C  0.50126543  0.96606061  0.27744428    -0.25600
C630        C  0.49582490  0.93457376  0.26834073     0.36900
C631        C  0.50967287  0.89472664  0.35718885     0.06500
F632        F  0.52790380  0.95611740  0.37004586    -0.19400
H633        H  0.52172105  0.99490641  0.31969128     0.16300
F634        F  0.48728492  0.92652337  0.23474272    -0.23100
H635        H  0.49261020  0.88730815  0.28727586     0.18100
C636        C  0.48195115  0.88312430  0.37148307     0.26100
C637        C  0.48250502  0.86642599  0.40341704    -0.11600
C638        C  0.51073503  0.86076691  0.42118117    -0.25600
C639        C  0.53864812  0.87090367  0.40569110     0.37000
C640        C  0.53800042  0.88801537  0.37407199    -0.27300
F641        F  0.45426279  0.88950887  0.35568431    -0.19400
H642        H  0.46079303  0.85814062  0.41445527     0.16300
F643        F  0.56637437  0.86557761  0.42189709    -0.23100
H644        H  0.55951574  0.89712815  0.36340635     0.18100
C645        C  0.76231681  0.33288279  0.33640215    -0.27200
C646        C  0.73874364  0.35553436  0.33702782     0.06500
C647        C  0.71574181  0.35520258  0.31036786     0.26100
C648        C  0.71564066  0.33167685  0.28452799    -0.11600
C649        C  0.73867774  0.30847566  0.28471070    -0.25600
C650        C  0.76239425  0.30961226  0.31047261     0.36900
C651        C  0.73808548  0.37857530  0.36638453     0.06500
F652        F  0.69281606  0.37692100  0.31005609    -0.19400
H653        H  0.69749125  0.33134439  0.26460285     0.16300
F654        F  0.78490500  0.28744270  0.31145024    -0.23100
H655        H  0.78050091  0.33302785  0.35633520     0.18100
C656        C  0.74006348  0.36848127  0.40199938     0.26100
C657        C  0.74333851  0.39000329  0.42956209    -0.11600
C658        C  0.74414039  0.42199025  0.42223372    -0.25600
C659        C  0.74009120  0.43228429  0.38688830     0.37000
C660        C  0.73727436  0.41064009  0.35912552    -0.27300
F661        F  0.73941172  0.33769928  0.41005397    -0.19400
H662        H  0.74607431  0.38162990  0.45664182     0.16300
F663        F  0.74113154  0.46306766  0.37890623    -0.23100
H664        H  0.73583181  0.41886453  0.33187974     0.18100
C665        C  0.60725705  0.27842010  0.38411267    -0.27200
C666        C  0.60886806  0.25924409  0.35377647     0.06500
C667        C  0.58727640  0.23500683  0.35000861     0.26100
C668        C  0.56574624  0.22906082  0.37704097    -0.11600
C669        C  0.56499378  0.24732469  0.40815571    -0.25600
C670        C  0.58530543  0.27279216  0.41094890     0.36900
C671        C  0.63504848  0.26236361  0.32827697     0.06500
F672        F  0.58840216  0.21567938  0.32139841    -0.19400
H673        H  0.55031372  0.20933403  0.37423059     0.16300
F674        F  0.58549492  0.29083714  0.44065518    -0.23100
H675        H  0.62374500  0.29721051  0.38752085     0.18100
C676        C  0.62998030  0.26527445  0.29131394     0.26100
C677        C  0.65517672  0.26585628  0.26766592    -0.11600
C678        C  0.68578205  0.26341307  0.28046571    -0.25600
C679        C  0.69076406  0.26036186  0.31743283     0.37000
C680        C  0.66565675  0.26027192  0.34103890    -0.27300
F681        F  0.60070593  0.26758889  0.27809424    -0.19400
H682        H  0.65085028  0.26803148  0.23940518     0.16300
F683        F  0.71980888  0.25603732  0.33066095    -0.23100
H684        H  0.67004107  0.25736418  0.36922782     0.18100
C685        C  0.89550297  0.27657474  0.13002087    -0.27200
C686        C  0.87615339  0.25073681  0.12579945     0.06500
C687        C  0.88248923  0.22903933  0.09872628     0.26100
C688        C  0.90743381  0.23377575  0.07545441    -0.11600
C689        C  0.92584907  0.26057451  0.07848104    -0.25600
C690        C  0.91999022  0.28166345  0.10652625     0.36900
C691        C  0.84780650  0.24854729  0.14760014     0.06500
F692        F  0.86400160  0.20382811  0.09421077    -0.19400
H693        H  0.91126493  0.21742305  0.05397943     0.16300
F694        F  0.93709892  0.30793635  0.11047309    -0.23100
H695        H  0.89068968  0.29365045  0.15049445     0.18100
C696        C  0.84952349  0.24845986  0.18501441     0.26100
C697        C  0.82236827  0.24962241  0.20530998    -0.11600
C698        C  0.79319677  0.25157870  0.18857306    -0.25600
C699        C  0.79159008  0.25200086  0.15109486     0.37000
C700        C  0.81869755  0.25000220  0.13083000    -0.27300
F701        F  0.87745989  0.24771074  0.20184191    -0.19400
H702        H  0.82407257  0.24950246  0.23405850     0.16300
F703        F  0.76403012  0.25598484  0.13408708    -0.23100
H704        H  0.81709989  0.25107273  0.10209513     0.18100
C705        C  0.76360768  0.11462478  0.09661326    -0.27200
C706        C  0.73822286  0.12554849  0.11666573     0.06500
C707        C  0.71040236  0.10870427  0.11614650     0.26100
C708        C  0.70765643  0.08215634  0.09511181    -0.11600
C709        C  0.73238011  0.07179807  0.07352644    -0.25600
C710        C  0.76076384  0.08802341  0.07503190     0.36900
C711        C  0.74024674  0.15455034  0.13797409     0.06500
F712        F  0.68569495  0.11803802  0.13595339    -0.19400
H713        H  0.68550810  0.07019415  0.09498372     0.16300
F714        F  0.78528434  0.07902364  0.05476992    -0.23100
H715        H  0.78535279  0.12729348  0.09683246     0.18100
C716        C  0.76238703  0.15767021  0.16529852     0.26100
C717        C  0.76211597  0.18393798  0.18736961    -0.11600
C718        C  0.73986825  0.20752889  0.18245170    -0.25600
C719        C  0.71821012  0.20479956  0.15456020     0.37000
C720        C  0.71846553  0.17853448  0.13252968    -0.27300
F721        F  0.78333170  0.13468251  0.17166136    -0.19400
H722        H  0.77889752  0.18562962  0.20882122     0.16300
F723        F  0.69711749  0.22772437  0.14841091    -0.23100
H724        H  0.70140107  0.17670072  0.11135277     0.18100
C725        C  0.63717932  0.75570035  0.41574257    -0.27200
C726        C  0.62789645  0.74998884  0.38038917     0.06500
C727        C  0.59622616  0.74415052  0.37355598     0.26100
C728        C  0.57435410  0.74551960  0.40134036    -0.11600
C729        C  0.58357857  0.75286383  0.43636101    -0.25600
C730        C  0.61541290  0.75728857  0.44334795     0.36900
C731        C  0.65145116  0.75091742  0.35115240     0.06500
F732        F  0.58615771  0.73867895  0.33980821    -0.19400
H733        H  0.55000876  0.74223088  0.39514981     0.16300
F734        F  0.62558239  0.76343056  0.47691611    -0.23100
H735        H  0.66146655  0.75931949  0.42200163     0.18100
C736        C  0.67296278  0.77552450  0.34909545     0.26100
C737        C  0.69640727  0.77533407  0.32325627    -0.11600
C738        C  0.69895143  0.75076550  0.29877788    -0.25600
C739        C  0.67662204  0.72692420  0.29959942     0.37000
C740        C  0.65329012  0.72690953  0.32572613    -0.27300
F741        F  0.67123562  0.79993187  0.37198952    -0.19400
H742        H  0.71306005  0.79416271  0.32277948     0.16300
F743        F  0.67750673  0.70356882  0.27527700    -0.23100
H744        H  0.63706578  0.70774107  0.32655667     0.18100
C745        C  0.74171211  0.64134851  0.30258158    -0.27200
C746        C  0.73976679  0.64429161  0.33986513     0.06500
C747        C  0.73988058  0.67429774  0.35496822     0.26100
C748        C  0.74240122  0.70064565  0.33311705    -0.11600
C749        C  0.74453874  0.69759135  0.29583245    -0.25600
C750        C  0.74403339  0.66764710  0.28078929     0.36900
C751        C  0.74119998  0.61600764  0.36271426     0.06500
F752        F  0.73917856  0.67814700  0.39090871    -0.19400
H753        H  0.74321981  0.72335100  0.34530146     0.16300
F754        F  0.74558752  0.66382774  0.24488313    -0.23100
H755        H  0.74175538  0.61863060  0.29037319     0.18100
C756        C  0.72074031  0.61134672  0.39155040     0.26100
C757        C  0.72548173  0.58651241  0.41531877    -0.11600
C758        C  0.75067064  0.56607405  0.41066590    -0.25600
C759        C  0.76948130  0.56936516  0.38015525     0.37000
C760        C  0.76477150  0.59406444  0.35662503    -0.27300
F761        F  0.69663291  0.63113552  0.39716790    -0.19400
H762        H  0.71053098  0.58434069  0.43842175     0.16300
F763        F  0.79339303  0.54944638  0.37382881    -0.23100
H764        H  0.78065024  0.59688805  0.33442844     0.18100
C765        C  0.72113752  0.87671862  0.10157436    -0.27200
C766        C  0.74760230  0.87695857  0.12323611     0.06500
C767        C  0.76959797  0.90085026  0.11903761     0.26100
C768        C  0.76556178  0.92346544  0.09235434    -0.11600
C769        C  0.73960980  0.92230414  0.06965821    -0.25600
C770        C  0.71698963  0.89916571  0.07526884     0.36900
C771        C  0.75191860  0.85155808  0.14937801     0.06500
F772        F  0.79545887  0.90154603  0.13974613    -0.19400
H773        H  0.78310763  0.94119007  0.08870434     0.16300
F774        F  0.69065698  0.89819008  0.05531081    -0.23100
H775        H  0.70364060  0.85889765  0.10497833     0.18100
C776        C  0.75338513  0.85775111  0.18611342     0.26100
C777        C  0.75462796  0.83320992  0.21061432    -0.11600
C778        C  0.75463399  0.80219561  0.19883381    -0.25600
C779        C  0.75335018  0.79603350  0.16199554     0.37000
C780        C  0.75198271  0.82055964  0.13756464    -0.27300
F781        F  0.75215624  0.88744198  0.19830602    -0.19400
H782        H  0.75521278  0.83835242  0.23888665     0.16300
F783        F  0.75207783  0.76636283  0.14971281    -0.23100
H784        H  0.75040443  0.81538878  0.10931520     0.18100
C785        C  0.85297484  0.77998962  0.18415752    -0.27200
C786        C  0.85950732  0.75570639  0.16027045     0.06500
C787        C  0.83860311  0.73072162  0.15766627     0.26100
C788        C  0.81176978  0.72994645  0.17875949    -0.11600
C789        C  0.80516393  0.75413352  0.20278786    -0.25600
C790        C  0.82614062  0.77915397  0.20543187     0.36900
C791        C  0.88860089  0.75538824  0.13898224     0.06500
F792        F  0.84413418  0.70710443  0.13447158    -0.19400
H793        H  0.79603054  0.71053806  0.17625173     0.16300
F794        F  0.82119229  0.80225802  0.22943432    -0.23100
H795        H  0.86896307  0.79916043  0.18686610     0.18100
C796        C  0.89286668  0.77558247  0.10983001     0.26100
C797        C  0.91781758  0.77100428  0.08616496    -0.11600
C798        C  0.93870746  0.74618040  0.09130471    -0.25600
C799        C  0.93580138  0.72781603  0.12231310     0.37000
C800        C  0.91093022  0.73232924  0.14569815    -0.27300
F801        F  0.87159957  0.79809730  0.10269183    -0.19400
H802        H  0.91936536  0.78529314  0.06246943     0.16300
F803        F  0.95604889  0.70422107  0.12895511    -0.23100
H804        H  0.90826295  0.71684872  0.16822586     0.18100
C805        C  0.24697171  0.59547490  0.36408985    -0.27200
C806        C  0.26854619  0.61910297  0.37104486     0.06500
C807        C  0.28677461  0.61726644  0.40224049     0.26100
C808        C  0.28232179  0.59292335  0.42669710    -0.11600
C809        C  0.25935474  0.57035975  0.42063675    -0.25600
C810        C  0.24232797  0.57142215  0.38852375     0.36900
C811        C  0.26974827  0.64654951  0.34693086     0.06500
F812        F  0.30831472  0.63938456  0.40945394    -0.19400
H813        H  0.29555621  0.59274980  0.45128684     0.16300
F814        F  0.22025813  0.54981274  0.38131221    -0.23100
H815        H  0.23255362  0.59644207  0.34041928     0.18100
C816        C  0.27223665  0.64276452  0.30971980     0.26100
C817        C  0.26961140  0.66845105  0.28693050    -0.11600
C818        C  0.26464623  0.69834772  0.30079870    -0.25600
C819        C  0.26258046  0.70228645  0.33797402     0.37000
C820        C  0.26519934  0.67659795  0.36079020    -0.27300
F821        F  0.27715114  0.61417856  0.29541957    -0.19400
H822        H  0.27159171  0.66508048  0.25839960     0.16300
F823        F  0.25703530  0.73083853  0.35208951    -0.23100
H824        H  0.26254853  0.68001317  0.38923628     0.18100
C825        C  0.34718154  0.76978734  0.34410223    -0.27200
C826        C  0.36653948  0.74356357  0.34203524     0.06500
C827        C  0.35920446  0.71962634  0.31810160     0.26100
C828        C  0.33268687  0.72200259  0.29657836    -0.11600
C829        C  0.31276147  0.74792867  0.29920236    -0.25600
C830        C  0.32047125  0.77201079  0.32299883     0.36900
C831        C  0.39374764  0.74149184  0.36590329     0.06500
F832        F  0.37764782  0.69407703  0.31558979    -0.19400
H833        H  0.32760933  0.70347873  0.27783537     0.16300
F834        F  0.30175031  0.79727298  0.32654504    -0.23100
H835        H  0.35258602  0.78841776  0.36264292     0.18100
C836        C  0.42080007  0.75829839  0.35814384     0.26100
C837        C  0.44347868  0.76248936  0.38445985    -0.11600
C838        C  0.43974241  0.74939452  0.41852283    -0.25600
C839        C  0.41392219  0.73031356  0.42520801     0.37000
C840        C  0.39095829  0.72662860  0.39906314    -0.27300
F841        F  0.42435936  0.77210959  0.32583661    -0.19400
H842        H  0.46329585  0.77720102  0.37882111     0.16300
F843        F  0.40936669  0.71785020  0.45806954    -0.23100
H844        H  0.37006060  0.71375386  0.40544330     0.18100
C845        C  0.13812516  0.72798800  0.09558714    -0.27200
C846        C  0.13397691  0.74925133  0.12348820     0.06500
C847        C  0.10629022  0.76682355  0.12460446     0.26100
C848        C  0.08290026  0.76224714  0.09884148    -0.11600
C849        C  0.08680274  0.74027834  0.07135835    -0.25600
C850        C  0.11511208  0.72350725  0.06988296     0.36900
C851        C  0.15876424  0.75212617  0.15112388     0.06500
F852        F  0.10204053  0.78869895  0.15023737    -0.19400
H853        H  0.06168437  0.77570360  0.10057608     0.16300
F854        F  0.12066776  0.70214057  0.04397405    -0.23100
H855        H  0.15915743  0.71417623  0.09407174     0.18100
C856        C  0.15216808  0.74855922  0.18770106     0.26100
C857        C  0.17625957  0.74861798  0.21300046    -0.11600
C858        C  0.20733905  0.75206739  0.20234159    -0.25600
C859        C  0.21393518  0.75499364  0.16570656     0.37000
C860        C  0.18990157  0.75536476  0.14055259    -0.27300
F861        F  0.12261511  0.74365945  0.19884629    -0.19400
H862        H  0.17067578  0.74590256  0.24099450     0.16300
F863        F  0.24372307  0.75662597  0.15409698    -0.23100
H864        H  0.19567832  0.75762208  0.11254873     0.18100
C865        C  0.24108100  0.86922934  0.09635429    -0.27200
C866        C  0.23556346  0.87824947  0.13173322     0.06500
C867        C  0.22786893  0.90944566  0.13900584     0.26100
C868        C  0.22855886  0.93165090  0.11154854    -0.11600
C869        C  0.23699857  0.92293913  0.07670560    -0.25600
C870        C  0.24169542  0.89120618  0.06906505     0.36900
C871        C  0.24091060  0.85519611  0.16049087     0.06500
F872        F  0.22207828  0.91888081  0.17290579    -0.19400
H873        H  0.22468250  0.95584965  0.11803303     0.16300
F874        F  0.24833873  0.88149433  0.03544385    -0.23100
H875        H  0.24621994  0.84521084  0.09009032     0.18100
C876        C  0.21778259  0.84772403  0.18545673     0.26100
C877        C  0.22252854  0.82325638  0.20957478    -0.11600
C878        C  0.25029634  0.80595469  0.20905309    -0.25600
C879        C  0.27391797  0.81445003  0.18519896     0.37000
C880        C  0.26917989  0.83880025  0.16120550    -0.27300
F881        F  0.19010772  0.86289783  0.18526748    -0.19400
H882        H  0.20411208  0.81710940  0.22800740     0.16300
F883        F  0.30078872  0.79791570  0.18354613    -0.23100
H884        H  0.28741387  0.84435669  0.14226354     0.18100
C885        C  0.37289000  0.75177517  0.59326892    -0.27200
C886        C  0.38186325  0.75277294  0.62923595     0.06500
C887        C  0.41357777  0.75035274  0.63799844     0.26100
C888        C  0.43594993  0.74890145  0.61093684    -0.11600
C889        C  0.42694699  0.75006302  0.57494670    -0.25600
C890        C  0.39512936  0.75054909  0.56632951     0.36900
C891        C  0.35782545  0.75702632  0.65701895     0.06500
F892        F  0.42301392  0.75140775  0.67254302    -0.19400
H893        H  0.46034402  0.74896471  0.61810725     0.16300
F894        F  0.38554951  0.75092596  0.53178184    -0.23100
H895        H  0.34852245  0.75273617  0.58600688     0.18100
C896        C  0.33595204  0.78134256  0.65423275     0.26100
C897        C  0.31136382  0.78339425  0.67841338    -0.11600
C898        C  0.30809463  0.76114830  0.70547396    -0.25600
C899        C  0.33086478  0.73789024  0.70949369     0.37000
C900        C  0.35551055  0.73585797  0.68537209    -0.27300
F901        F  0.33813451  0.80281211  0.62777609    -0.19400
H902        H  0.29408704  0.80159552  0.67513423     0.16300
F903        F  0.32868626  0.71663659  0.73615170    -0.23100
H904        H  0.37216452  0.71701940  0.68803908     0.18100
C905        C  0.26550693  0.65306084  0.68824080    -0.27200
C906        C  0.26749862  0.65885015  0.65138458     0.06500
C907        C  0.26859214  0.69002774  0.63969450     0.26100
C908        C  0.26600477  0.71456170  0.66409952    -0.11600
C909        C  0.26307868  0.70879262  0.70085679    -0.25600
C910        C  0.26340039  0.67770187  0.71273958     0.36900
C911        C  0.26464921  0.63285513  0.62504576     0.06500
F912        F  0.27170034  0.69678993  0.60448390    -0.19400
H913        H  0.26567846  0.73825911  0.65409815     0.16300
F914        F  0.26146121  0.67117103  0.74809569    -0.23100
H915        H  0.26438830  0.62934579  0.69804946     0.18100
C916        C  0.28222550  0.60514132  0.62737920     0.26100
C917        C  0.27771326  0.58089660  0.60250619    -0.11600
C918        C  0.25558650  0.58383708  0.57493569    -0.25600
C919        C  0.23815527  0.61171418  0.57299268     0.37000
C920        C  0.24264779  0.63555548  0.59763917    -0.27300
F921        F  0.30402291  0.60167881  0.65328382    -0.19400
H922        H  0.29147858  0.55990043  0.60483386     0.16300
F923        F  0.21606697  0.61607939  0.54758046    -0.23100
H924        H  0.22823272  0.65614154  0.59564543     0.18100
C925        C  0.24024162  0.83381659  0.85835886    -0.27200
C926        C  0.23447302  0.86370975  0.84461878     0.06500
C927        C  0.23261149  0.86770005  0.80739542     0.26100
C928        C  0.23705635  0.84233252  0.78446949    -0.11600
C929        C  0.24318665  0.81255018  0.79825196    -0.25600
C930        C  0.24471879  0.80848805  0.83545155     0.36900
C931        C  0.23422855  0.89087244  0.86912165     0.06500
F932        F  0.22654461  0.89614714  0.79323816    -0.19400
H933        H  0.23560560  0.84584584  0.75598470     0.16300
F934        F  0.25149911  0.78020866  0.84960003    -0.23100
H935        H  0.24249345  0.83031626  0.88677353     0.18100
C936        C  0.21574168  0.89132631  0.90011203     0.26100
C937        C  0.21987202  0.91464291  0.92585622    -0.11600
C938        C  0.24284462  0.93742806  0.92131244    -0.25600
C939        C  0.25991903  0.93802154  0.88934714     0.37000
C940        C  0.25546577  0.91508425  0.86347451    -0.27300
F941        F  0.19457104  0.86859425  0.90611020    -0.19400
H942        H  0.20664677  0.91363685  0.95032521     0.16300
F943        F  0.28202047  0.95997022  0.88385720    -0.23100
H944        H  0.27002232  0.91516468  0.84002309     0.18100
C945        C  0.17141749  0.72798467  0.84210986    -0.27200
C946        C  0.14853105  0.75127328  0.84355708     0.06500
C947        C  0.15229749  0.77826257  0.82273563     0.26100
C948        C  0.17791602  0.78110758  0.79988170    -0.11600
C949        C  0.20057328  0.75749846  0.79814439    -0.25600
C950        C  0.19722298  0.73107868  0.81989061     0.36900
C951        C  0.12118551  0.74690950  0.86719301     0.06500
F952        F  0.13082478  0.80141775  0.82373343    -0.19400
H953        H  0.17987868  0.80159662  0.78322273     0.16300
F954        F  0.21923915  0.70841308  0.82003980    -0.23100
H955        H  0.16941857  0.70736620  0.85859590     0.18100
C956        C  0.10357651  0.71944612  0.86536660     0.26100
C957        C  0.08032100  0.71354563  0.89051909    -0.11600
C958        C  0.07392454  0.73496568  0.91794493    -0.25600
C959        C  0.09068447  0.76312140  0.91874486     0.37000
C960        C  0.11401860  0.76895569  0.89356337    -0.27300
F961        F  0.10920490  0.69808370  0.83947353    -0.19400
H962        H  0.06774412  0.69180707  0.88896974     0.16300
F963        F  0.08586957  0.78428594  0.94502871    -0.23100
H964        H  0.12745968  0.79012183  0.89565643     0.18100
C965        C  0.23857189  0.40668531  0.64657037    -0.27200
C966        C  0.26053577  0.38322695  0.64028042     0.06500
C967        C  0.28106244  0.38613614  0.61133249     0.26100
C968        C  0.27847548  0.41153529  0.58796506    -0.11600
C969        C  0.25525727  0.43414247  0.59314373    -0.25600
C970        C  0.23596258  0.43195999  0.62336337     0.36900
C971        C  0.26006797  0.35485429  0.66255362     0.06500
F972        F  0.30205934  0.36335436  0.60426279    -0.19400
H973        H  0.29311380  0.41236925  0.56458614     0.16300
F974        F  0.21361304  0.45361907  0.62962586    -0.23100
H975        H  0.22279202  0.40488298  0.66886491     0.18100
C976        C  0.28550445  0.34664457  0.68408169     0.26100
C977        C  0.28395315  0.32037080  0.70606675    -0.11600
C978        C  0.25727438  0.30156054  0.70627916    -0.25600
C979        C  0.23195979  0.30972783  0.68443341     0.37000
C980        C  0.23333097  0.33625662  0.66296930    -0.27300
F981        F  0.31140177  0.36454527  0.68461961    -0.19400
H982        H  0.30343321  0.31487020  0.72319488     0.16300
F983        F  0.20602278  0.29185784  0.68359620    -0.23100
H984        H  0.21358561  0.34225180  0.64646721     0.18100
C985        C  0.40202131  0.22619345  0.63385108    -0.27200
C986        C  0.38068870  0.25059833  0.62957716     0.06500
C987        C  0.38455808  0.27153448  0.60102162     0.26100
C988        C  0.40889033  0.26731425  0.57656888    -0.11600
C989        C  0.42937796  0.24196430  0.58003494    -0.25600
C990        C  0.42599258  0.22176219  0.60939493     0.36900
C991        C  0.35426921  0.25302209  0.65479465     0.06500
F992        F  0.36470923  0.29581863  0.59661353    -0.19400
H993        H  0.41082194  0.28298033  0.55407539     0.16300
F994        F  0.44539060  0.19711487  0.61402460    -0.23100
H995        H  0.39948572  0.20985040  0.65562010     0.18100
C996        C  0.32336082  0.25216282  0.64259817     0.26100
C997        C  0.29881852  0.25109804  0.66705300    -0.11600
C998        C  0.30466853  0.25097263  0.70397129    -0.25600
C999        C  0.33551169  0.25231813  0.71610615     0.37000
C1000       C  0.36002630  0.25324168  0.69170689    -0.27300
F1001       F  0.31694700  0.25097591  0.60714581    -0.19400
H1002       H  0.27518390  0.25003860  0.65722298     0.16300
F1003       F  0.34187948  0.25324900  0.75156631    -0.23100
H1004       H  0.38365124  0.25390644  0.70162219     0.18100
C1005       C  0.15435132  0.22002155  0.82517758    -0.27200
C1006       C  0.14679599  0.24652976  0.84515806     0.06500
C1007       C  0.16612497  0.27274351  0.84345252     0.26100
C1008       C  0.19274228  0.27230835  0.82216020    -0.11600
C1009       C  0.20029517  0.24593318  0.80173691    -0.25600
C1010       C  0.18062799  0.21982238  0.80318149     0.36900
C1011       C  0.11863695  0.24703149  0.86760741     0.06500
F1012       F  0.15929882  0.29871559  0.86252608    -0.19400
H1013       H  0.20743634  0.29263128  0.82146122     0.16300
F1014       F  0.18613161  0.19457961  0.78240792    -0.23100
H1015       H  0.13949351  0.19984077  0.82597948     0.18100
C1016       C  0.09342768  0.26623817  0.85852579     0.26100
C1017       C  0.06855862  0.26969718  0.88209569    -0.11600
C1018       C  0.06836022  0.25399539  0.91500212    -0.25600
C1019       C  0.09280340  0.23341954  0.92319126     0.37000
C1020       C  0.11776158  0.22999088  0.89953772    -0.27300
F1021       F  0.09343648  0.28247759  0.82744710    -0.19400
H1022       H  0.05001407  0.28582804  0.87536956     0.16300
F1023       F  0.09394857  0.21886345  0.95531494    -0.23100
H1024       H  0.13720211  0.21522221  0.90694505     0.18100
C1025       C  0.24910029  0.18217472  0.86766885    -0.27200
C1026       C  0.24869748  0.15070255  0.85746430     0.06500
C1027       C  0.24968446  0.14331387  0.82086945     0.26100
C1028       C  0.25111280  0.16705848  0.79524370    -0.11600
C1029       C  0.25146565  0.19844924  0.80568894    -0.25600
C1030       C  0.25108243  0.20574816  0.84220297     0.36900
C1031       C  0.24921199  0.12612028  0.88542633     0.06500
F1032       F  0.25017102  0.11323134  0.80991601    -0.19400
H1033       H  0.25162109  0.16101018  0.76722995     0.16300
F1034       F  0.25311176  0.23573076  0.85327469    -0.23100
H1035       H  0.24819301  0.18857318  0.89558053     0.18100
C1036       C  0.26993888  0.12865369  0.91425002     0.26100
C1037       C  0.27010616  0.10648521  0.94125037    -0.11600
C1038       C  0.25015453  0.08067704  0.94017311    -0.25600
C1039       C  0.22982044  0.07751486  0.91090006     0.37000
C1040       C  0.22921308  0.10027393  0.88394921    -0.27300
F1041       F  0.29085974  0.15217364  0.91589422    -0.19400
H1042       H  0.28664743  0.10935338  0.96284630     0.16300
F1043       F  0.21067180  0.05260044  0.90822531    -0.23100
H1044       H  0.21293439  0.09780913  0.86200802     0.18100
C1045       C  0.65367686  0.27454358  0.67175963    -0.27200
C1046       C  0.64915722  0.25168137  0.64543809     0.06500
C1047       C  0.66945931  0.22592622  0.64454994     0.26100
C1048       C  0.69415815  0.22360893  0.66863134    -0.11600
C1049       C  0.69953668  0.24701761  0.69388308    -0.25600
C1050       C  0.67868541  0.27229775  0.69580572     0.36900
C1051       C  0.62428073  0.25476138  0.61791017     0.06500
F1052       F  0.66544706  0.20291055  0.62020480    -0.19400
H1053       H  0.70975696  0.20383450  0.66690178     0.16300
F1054       F  0.68258051  0.29478850  0.72080665    -0.23100
H1055       H  0.63832008  0.29451201  0.67310034     0.18100
C1056       C  0.59274186  0.25862254  0.62702142     0.26100
C1057       C  0.56954866  0.25677352  0.60056254    -0.11600
C1058       C  0.57748886  0.25082347  0.56479751    -0.25600
C1059       C  0.60917557  0.24912978  0.55560932     0.37000
C1060       C  0.63213284  0.25131366  0.58180675    -0.27300
F1061       F  0.58421920  0.26198252  0.66165696    -0.19400
H1062       H  0.54536157  0.25800870  0.60837565     0.16300
F1063       F  0.61805508  0.24420254  0.52131174    -0.23100
H1064       H  0.65625586  0.24908485  0.57398506     0.18100
C1065       C  0.74735495  0.31989509  0.63521530    -0.27200
C1066       C  0.74947796  0.34947815  0.65095183     0.06500
C1067       C  0.75153170  0.35189247  0.68829183     0.26100
C1068       C  0.75160088  0.32511263  0.70935980    -0.11600
C1069       C  0.74967151  0.29555810  0.69359549    -0.25600
C1070       C  0.74768992  0.29310208  0.65630036     0.36900
C1071       C  0.75049602  0.37746009  0.62800883     0.06500
F1072       F  0.75315800  0.38010836  0.70441875    -0.19400
H1073       H  0.75320448  0.32737597  0.73805056     0.16300
F1074       F  0.74719659  0.26484033  0.64021494    -0.23100
H1075       H  0.74627795  0.31754244  0.60652387     0.18100
C1076       C  0.77475608  0.39904561  0.63139709     0.26100
C1077       C  0.77710192  0.42371786  0.60742850    -0.11600
C1078       C  0.75574340  0.42708142  0.57922834    -0.25600
C1079       C  0.73077948  0.40623412  0.57665521     0.37000
C1080       C  0.72826563  0.38161789  0.60090788    -0.27300
F1081       F  0.79749354  0.39506075  0.65615255    -0.19400
H1082       H  0.79671416  0.43929469  0.60976095     0.16300
F1083       F  0.71028433  0.40812555  0.54919833    -0.23100
H1084       H  0.70943946  0.36511877  0.59784801     0.18100
C1085       C  0.73305564  0.16714199  0.84198900    -0.27200
C1086       C  0.75673080  0.14454591  0.84360301     0.06500
C1087       C  0.78037015  0.14528360  0.81751678     0.26100
C1088       C  0.78022645  0.16837126  0.79099500    -0.11600
C1089       C  0.75661663  0.19096927  0.79004356    -0.25600
C1090       C  0.73318351  0.19024982  0.81591922     0.36900
C1091       C  0.75566157  0.12032267  0.87219749     0.06500
F1092       F  0.80393138  0.12425314  0.81803602    -0.19400
H1093       H  0.79864652  0.16877194  0.77127754     0.16300
F1094       F  0.71085301  0.21259982  0.81658492    -0.23100
H1095       H  0.71405088  0.16687528  0.86090902     0.18100
C1096       C  0.74624884  0.12822797  0.90707562     0.26100
C1097       C  0.74015277  0.10506281  0.93219769    -0.11600
C1098       C  0.74442520  0.07352026  0.92383700    -0.25600
C1099       C  0.75646925  0.06562095  0.89014303     0.37000
C1100       C  0.76149702  0.08879357  0.86440623    -0.27300
F1101       F  0.74254263  0.15840840  0.91689724    -0.19400
H1102       H  0.73175267  0.11185565  0.95834106     0.16300
F1103       F  0.76164237  0.03543830  0.88133250    -0.23100
H1104       H  0.76860749  0.08181273  0.83786271     0.18100
C1105       C  0.82368482  0.24665058  0.84911191    -0.27200
C1106       C  0.85481548  0.24444981  0.83816432     0.06500
C1107       C  0.86133678  0.23888998  0.80190498     0.26100
C1108       C  0.83697979  0.23631589  0.77716888    -0.11600
C1109       C  0.80595734  0.23914880  0.78831956    -0.25600
C1110       C  0.79954658  0.24455891  0.82445994     0.36900
C1111       C  0.87981842  0.24978609  0.86479344     0.06500
F1112       F  0.89111315  0.23731580  0.79019030    -0.19400
H1113       H  0.84226577  0.23264862  0.74925299     0.16300
F1114       F  0.76994607  0.24916834  0.83569103    -0.23100
H1115       H  0.81803011  0.25071068  0.87687407     0.18100
C1116       C  0.87788049  0.27549241  0.88780596     0.26100
C1117       C  0.89941931  0.27931650  0.91511023    -0.11600
C1118       C  0.92381055  0.25793412  0.92016598    -0.25600
C1119       C  0.92671672  0.23285409  0.89618371     0.37000
C1120       C  0.90473700  0.22880421  0.86879555    -0.27300
F1121       F  0.85510483  0.29714637  0.88385254    -0.19400
H1122       H  0.89691413  0.29938109  0.93238138     0.16300
F1123       F  0.95015175  0.21190167  0.89966655    -0.23100
H1124       H  0.90668530  0.20879969  0.85134047     0.18100
C1125       C  0.77222765  0.65940991  0.65594055    -0.27200
C1126       C  0.74628583  0.63984947  0.65248607     0.06500
C1127       C  0.72226459  0.64220089  0.67788916     0.26100
C1128       C  0.72391338  0.66449617  0.70519200    -0.11600
C1129       C  0.74933671  0.68490493  0.70741277    -0.25600
C1130       C  0.77363471  0.68183625  0.68274411     0.36900
C1131       C  0.74509034  0.61736564  0.62224310     0.06500
F1132       F  0.69674185  0.62384760  0.67562878    -0.19400
H1133       H  0.70503579  0.66635099  0.72408676     0.16300
F1134       F  0.79820038  0.70153399  0.68355436    -0.23100
H1135       H  0.79146432  0.65757505  0.63755095     0.18100
C1136       C  0.75452364  0.62656222  0.58784151     0.26100
C1137       C  0.75808531  0.60459370  0.56076117    -0.11600
C1138       C  0.75161870  0.57305144  0.56687806    -0.25600
C1139       C  0.73977042  0.56414705  0.60037505     0.37000
C1140       C  0.73688456  0.58609912  0.62786665    -0.27300
F1141       F  0.76081671  0.65681476  0.58045642    -0.19400
H1142       H  0.76648196  0.61229900  0.53495340     0.16300
F1143       F  0.73262135  0.53401283  0.60725106    -0.23100
H1144       H  0.72959765  0.57829030  0.65402890     0.18100
C1145       C  0.60760563  0.71719485  0.62098836    -0.27200
C1146       C  0.61717397  0.73993224  0.64540931     0.06500
C1147       C  0.60243623  0.76905882  0.64547551     0.26100
C1148       C  0.57957413  0.77586641  0.62014981    -0.11600
C1149       C  0.57096618  0.75374539  0.59426452    -0.25600
C1150       C  0.58445973  0.72384863  0.59577696     0.36900
C1151       C  0.64479823  0.73469967  0.66798798     0.06500
F1152       F  0.61153993  0.79156127  0.66862085    -0.19400
H1153       H  0.56952798  0.79898918  0.61993759     0.16300
F1154       F  0.57660169  0.70156316  0.57180568    -0.23100
H1155       H  0.61884086  0.69463240  0.62070654     0.18100
C1156       C  0.64207767  0.73065059  0.70501787     0.26100
C1157       C  0.66875449  0.72950338  0.72640400    -0.11600
C1158       C  0.69839299  0.73227155  0.71109921    -0.25600
C1159       C  0.70103726  0.73544543  0.67389230     0.37000
C1160       C  0.67439186  0.73653550  0.65256171    -0.27300
F1161       F  0.61366659  0.72833014  0.72041771    -0.19400
H1162       H  0.66634001  0.72694536  0.75505864     0.16300
F1163       F  0.72928639  0.73880836  0.65838723    -0.23100
H1164       H  0.67677508  0.73996598  0.62403449     0.18100
C1165       C  0.85423916  0.76750710  0.82313372    -0.27200
C1166       C  0.85604922  0.74724822  0.85262182     0.06500
C1167       C  0.83330298  0.72388273  0.85608000     0.26100
C1168       C  0.80893957  0.72154875  0.83152374    -0.11600
C1169       C  0.80657981  0.74232358  0.80287274    -0.25600
C1170       C  0.82973303  0.76505164  0.79840322     0.36900
C1171       C  0.88090194  0.75037195  0.88036663     0.06500
F1172       F  0.83474112  0.70297180  0.88317533    -0.19400
H1173       H  0.79155519  0.70374737  0.83517801     0.16300
F1174       F  0.82865805  0.78474258  0.77010912    -0.23100
H1175       H  0.87137905  0.78557006  0.81965047     0.18100
C1176       C  0.91271553  0.75199082  0.87155849     0.26100
C1177       C  0.93555068  0.75006495  0.89848244    -0.11600
C1178       C  0.92703449  0.74628288  0.93449131    -0.25600
C1179       C  0.89526491  0.74686143  0.94326362     0.37000
C1180       C  0.87265318  0.74925704  0.91660804    -0.27300
F1181       F  0.92180368  0.75333797  0.83692903    -0.19400
H1182       H  0.95977854  0.74962682  0.89098513     0.16300
F1183       F  0.88591438  0.74416885  0.97770403    -0.23100
H1184       H  0.84846264  0.74905483  0.92428953     0.18100
C1185       C  0.76493144  0.84717238  0.80796183    -0.27200
C1186       C  0.75780052  0.84514972  0.84448171     0.06500
C1187       C  0.75049918  0.81588397  0.85912967     0.26100
C1188       C  0.75077917  0.78922983  0.83770013    -0.11600
C1189       C  0.75783845  0.79138901  0.80130322    -0.25600
C1190       C  0.76484876  0.82052979  0.78647749     0.36900
C1191       C  0.75593246  0.87378012  0.86661299     0.06500
F1192       F  0.74160962  0.81328699  0.89373083    -0.19400
H1193       H  0.74469414  0.76699755  0.84924753     0.16300
F1194       F  0.77142744  0.82315658  0.75118793    -0.23100
H1195       H  0.77030112  0.86944775  0.79607613     0.18100
C1196       C  0.77200761  0.87618888  0.89923968     0.26100
C1197       C  0.76719149  0.90190202  0.92163733    -0.11600
C1198       C  0.74590273  0.92531381  0.91211312    -0.25600
C1199       C  0.73118681  0.92368902  0.87858391     0.37000
C1200       C  0.73641525  0.89830811  0.85598740    -0.27300
F1201       F  0.79166046  0.85323873  0.90988695    -0.19400
H1202       H  0.77853493  0.90247684  0.94742150     0.16300
F1203       F  0.71074729  0.94607427  0.86829337    -0.23100
H1204       H  0.72394144  0.89703790  0.83090708     0.18100
loop_ 
_geom_bond_atom_site_label_1 
_geom_bond_atom_site_label_2 
_geom_bond_distance 
_geom_bond_site_symmetry_2 
_ccdc_geom_bond_type 
C1            C2   1.412       .  A
C1            C6   1.403       .  A
C1         C1189   1.479       .  S
C2            C3   1.407       .  A
C2         C1169   1.488       .  S
C3            C4   1.411       .  A
C3            H8   1.083       .  S
C4            C5   1.416       .  A
C4         C1129   1.488       .  S
C5            C6   1.403       .  A
C5         C1158   1.484       .  S
C6            H7   1.084       .  S
C9           C10   1.413       .  A
C9           C14   1.399       .  A
C9         C1109   1.481       .  S
C10          C11   1.407       .  A
C10        C1089   1.483       .  S
C11          C12   1.406       .  A
C11          H16   1.085       .  S
C12          C13   1.417       .  A
C12        C1049   1.491       .  S
C13          C14   1.404       .  A
C13        C1069   1.479       .  S
C14          H15   1.086       .  S
C17          C18   1.418       .  A
C17          C22   1.403       .  A
C17        C1009   1.491       .  S
C18          C19   1.408       .  A
C18        C1029   1.486       .  S
C19          C20   1.408       .  A
C19          H24   1.086       .  S
C20          C21   1.414       .  A
C20         C998   1.487       .  S
C21          C22   1.402       .  A
C21         C978   1.486       .  S
C22          H23   1.086       .  S
C25          C26   1.417       .  A
C25          C30   1.409       .  A
C25         C949   1.490       .  S
C26          C27   1.407       .  A
C26         C929   1.488       .  S
C27          C28   1.407       .  A
C27          H32   1.082       .  S
C28          C29   1.417       .  A
C28         C898   1.481       .  S
C29          C30   1.406       .  A
C29         C909   1.499       .  S
C30          H31   1.083       .  S
C33          C34   1.418       .  A
C33          C38   1.408       .  A
C33         C858   1.494       .  S
C34          C35   1.405       .  A
C34         C878   1.485       .  S
C35          C36   1.405       .  A
C35          H40   1.083       .  S
C36          C37   1.416       .  A
C36         C829   1.490       .  S
C37          C38   1.408       .  A
C37         C818   1.486       .  S
C38          H39   1.083       .  S
C41          C42   1.415       .  A
C41          C46   1.407       .  A
C41         C778   1.484       .  S
C42          C43   1.407       .  A
C42         C789   1.495       .  S
C43          C44   1.411       .  A
C43          H48   1.085       .  S
C44          C45   1.419       .  A
C44         C749   1.490       .  S
C45          C46   1.405       .  A
C45         C738   1.492       .  S
C46          H47   1.085       .  S
C49          C50   1.414       .  A
C49          C54   1.406       .  A
C49         C718   1.485       .  S
C50          C51   1.402       .  A
C50         C698   1.482       .  S
C51          C52   1.401       .  A
C51          H56   1.086       .  S
C52          C53   1.416       .  A
C52         C649   1.483       .  S
C53          C54   1.407       .  A
C53         C678   1.489       .  S
C54          H55   1.086       .  S
O57         Cr75   1.997       .  S
O57          C65   1.264       .  A
O58         Cr75   1.972       .  S
O58          C59   1.259       .  A
C59         C838   1.474       .  S
C59          O60   1.270       .  A
O60         Cr76   2.028       .  S
O61         Cr76   2.000       .  S
O61          C62   1.265       .  A
C62         C729   1.488       .  S
C62          O63   1.266       .  A
O63         Cr77   2.006       .  S
O64         Cr77   1.969       .  S
O64          C65   1.257       .  A
C65         C638   1.471       .  S
O66         Cr75   1.994       .  S
O66          C74   1.262       .  A
O67         Cr75   1.991       .  S
O67          C68   1.262       .  A
C68         C889   1.473       .  S
C68          O69   1.264       .  A
O69         Cr76   1.995       .  S
O70         Cr76   2.026       .  S
O70          C71   1.271       .  A
C71        C1149   1.485       .  S
C71          O72   1.259       .  A
O72         Cr77   1.965       .  S
O73         Cr77   2.009       .  S
O73          C74   1.268       .  A
C74         C609   1.493       .  S
Cr75         O78   1.762       .  S
Cr76         O78   1.765       .  S
Cr77         O78   1.761       .  S
O79         Cr97   1.997       .  S
O79          C87   1.263       .  A
O80         Cr97   1.967       .  S
O80          C81   1.260       .  A
C81        C1198   1.481       .  S
C81          O82   1.276       .  A
O82         Cr98   2.047       .  S
O83         Cr98   1.990   1_545  S
O83          C84   1.264       .  A
C84        C1098   1.483       .  S
C84          O85   1.268       .  A
O85         Cr99   2.009       .  S
O86         Cr99   1.983       .  S
O86          C87   1.259   1_545  A
C87         C589   1.483       .  S
O88         Cr97   1.980   1_554  S
O88          C96   1.260       .  A
O89         Cr97   1.983   1_554  S
O89          C90   1.260       .  A
C90         C769   1.477       .  S
C90          O91   1.264       .  A
O91         Cr98   2.002   1_554  S
O92         Cr98   2.043   1_544  S
O92          C93   1.273       .  A
C93         C709   1.489       .  S
C93          O94   1.256       .  A
O94         Cr99   1.953   1_554  S
O95         Cr99   2.023   1_554  S
O95          C96   1.272   1_545  A
C96         C569   1.490       .  S
Cr97        O100   1.762       .  S
Cr98        O100   1.773       .  S
Cr99        O100   1.756   1_545  S
O101       Cr119   1.969   1_556  S
O101        C109   1.258       .  A
O102       Cr119   1.991   1_556  S
O102        C103   1.263       .  A
C103       C1038   1.485       .  S
C103        O104   1.263       .  A
O104       Cr120   1.998   1_556  S
O105       Cr120   2.033   1_566  S
O105        C106   1.272       .  A
C106        C938   1.477       .  S
C106        O107   1.258       .  A
O107       Cr121   1.964   1_556  S
O108       Cr121   2.017   1_556  S
O108        C109   1.269   1_565  A
C109        C529   1.486       .  S
O110       Cr119   1.997       .  S
O110        C118   1.265   1_545  A
O111       Cr119   1.959       .  S
O111        C112   1.257       .  A
C112        C549   1.482       .  S
C112        O113   1.274       .  A
O113       Cr120   2.043       .  S
O114       Cr120   1.992   1_565  S
O114        C115   1.265       .  A
C115        C869   1.480       .  S
C115        O116   1.266       .  A
O116       Cr121   1.999       .  S
O117       Cr121   1.985       .  S
O117        C118   1.259       .  A
C118        C509   1.477       .  S
Cr119       O122   1.756       .  S
Cr120       O122   1.769       .  S
Cr121       O122   1.761   1_565  S
O123       Cr141   2.012       .  S
O123        C131   1.268       .  A
O124       Cr141   1.967       .  S
O124        C125   1.261       .  A
C125        C669   1.482       .  S
C125        O126   1.274       .  A
O126       Cr142   2.036       .  S
O127       Cr142   2.004       .  S
O127        C128   1.264       .  A
C128        C489   1.490       .  S
C128        O129   1.263       .  A
O129       Cr143   1.992       .  S
O130       Cr143   1.966       .  S
O130        C131   1.257       .  A
C131        C469   1.479       .  S
O132       Cr141   1.988       .  S
O132        C140   1.261       .  A
O133       Cr141   1.995       .  S
O133        C134   1.263       .  A
C134       C1058   1.487       .  S
C134        O135   1.266       .  A
O135       Cr142   2.009       .  S
O136       Cr142   2.039       .  S
O136        C137   1.274       .  A
C137        C989   1.481       .  S
C137        O138   1.257       .  A
O138       Cr143   1.953       .  S
O139       Cr143   2.006       .  S
O139        C140   1.264       .  A
C140        C449   1.478       .  S
Cr141       O144   1.760       .  S
Cr142       O144   1.768       .  S
Cr143       O144   1.760       .  S
C145        C478   1.557   1_565  S
C145        C518   1.555       .  S
C145        C578   1.567       .  S
C145        C629   1.555       .  S
C146        C458   1.564       .  S
C146        C538   1.562       .  S
C146        C598   1.570       .  S
C146        C618   1.571   1_545  S
O147       Cr165   2.003       .  S
O147        C155   1.265       .  A
O148       Cr165   1.949       .  S
O148        C149   1.255       .  A
C149       C1078   1.475       .  S
C149        O150   1.274       .  A
O150       Cr166   2.039       .  S
O151       Cr166   1.984       .  S
O151        C152   1.262       .  A
C152       C1138   1.483       .  S
C152        O153   1.267       .  A
O153       Cr167   2.008       .  S
O154       Cr167   1.973       .  S
O154        C155   1.260       .  A
C155        C409   1.470       .  S
O156       Cr165   1.975       .  S
O156        C164   1.259       .  A
O157       Cr165   2.001       .  S
O157        C158   1.263       .  A
C158        C658   1.473       .  S
C158        O159   1.260       .  A
O159       Cr166   1.985       .  S
O160       Cr166   2.037       .  S
O160        C161   1.272       .  A
C161        C758   1.481       .  S
C161        O162   1.256       .  A
O162       Cr167   1.955       .  S
O163       Cr167   2.006       .  S
O163        C164   1.268       .  A
C164        C429   1.480       .  S
Cr165       O168   1.761       .  S
Cr166       O168   1.769       .  S
Cr167       O168   1.757       .  S
O169       Cr187   2.001   1_556  S
O169        C177   1.264   1_455  A
O170       Cr187   1.975   1_556  S
O170        C171   1.263       .  A
C171        C958   1.490       .  S
C171        O172   1.274       .  A
O172       Cr188   2.031   1_556  S
O173       Cr188   2.007   1_656  S
O173        C174   1.265       .  A
C174       C1178   1.490       .  S
C174        O175   1.265       .  A
O175       Cr189   2.005   1_556  S
O176       Cr189   1.979   1_556  S
O176        C177   1.259       .  A
C177        C389   1.482       .  S
O178       Cr187   1.975       .  S
O178        C186   1.259       .  A
O179       Cr187   1.989       .  S
O179        C180   1.261       .  A
C180        C849   1.495       .  S
C180        O181   1.268       .  A
O181       Cr188   2.014       .  S
O182       Cr188   2.046   1_655  S
O182        C183   1.274       .  A
C183        C798   1.486       .  S
C183        O184   1.257       .  A
O184       Cr189   1.959       .  S
O185       Cr189   2.014       .  S
O185        C186   1.267   1_655  A
C186        C369   1.482       .  S
Cr187       O190   1.761       .  S
Cr188       O190   1.767       .  S
Cr189       O190   1.765   1_655  S
O191       Cr209   1.975   1_554  S
O191        C199   1.260       .  A
O192       Cr209   1.984   1_554  S
O192        C193   1.261       .  A
C193        C349   1.486       .  S
C193        O194   1.264       .  A
O194       Cr210   2.009   1_454  S
O195       Cr210   2.030   1_554  S
O195        C196   1.272       .  A
C196        C689   1.476       .  S
C196        O197   1.255       .  A
O197       Cr211   1.951   1_554  S
O198       Cr211   2.005   1_554  S
O198        C199   1.266   1_655  A
C199        C309   1.481       .  S
O200       Cr209   1.995       .  S
O200        C208   1.263   1_455  A
O201       Cr209   1.959       .  S
O201        C202   1.257       .  A
C202       C1018   1.475       .  S
C202        O203   1.274       .  A
O203       Cr210   2.040   1_455  S
O204       Cr210   2.000       .  S
O204        C205   1.266       .  A
C205       C1118   1.485       .  S
C205        O206   1.265       .  A
O206       Cr211   1.992       .  S
O207       Cr211   1.967       .  S
O207        C208   1.257       .  A
C208        C329   1.464       .  S
Cr209       O212   1.755   1_455  S
Cr210       O212   1.769       .  S
Cr211       O212   1.755       .  S
O213       Cr231   1.976       .  S
O213        C221   1.258       .  A
O214       Cr231   2.001       .  S
O214        C215   1.264       .  A
C215        C289   1.480       .  S
C215        O216   1.264       .  A
O216       Cr232   1.999       .  S
O217       Cr232   2.040       .  S
O217        C218   1.273       .  A
C218        C809   1.482       .  S
C218        O219   1.257       .  A
O219       Cr233   1.959       .  S
O220       Cr233   1.998       .  S
O220        C221   1.265       .  A
C221        C269   1.470       .  S
O222       Cr231   2.010       .  S
O222        C230   1.267       .  A
O223       Cr231   1.957       .  S
O223        C224   1.257       .  A
C224        C969   1.479       .  S
C224        O225   1.274       .  A
O225       Cr232   2.043       .  S
O226       Cr232   2.013       .  S
O226        C227   1.269       .  A
C227        C918   1.498       .  S
C227        O228   1.264       .  A
O228       Cr233   1.995       .  S
O229       Cr233   1.968       .  S
O229        C230   1.258       .  A
C230        C258   1.478       .  S
Cr231       O234   1.765       .  S
Cr232       O234   1.769       .  S
Cr233       O234   1.753       .  S
C235        C278   1.552       .  S
C235        C318   1.560       .  S
C235        C378   1.561       .  S
C235        C438   1.562   1_455  S
C236        C249   1.553       .  S
C236        C338   1.552       .  S
C236        C398   1.556   1_455  S
C236        C418   1.554   1_455  S
C237        C238   1.420       .  A
C237        C242   1.407       .  A
C237        C558   1.492       .  S
C238        C239   1.408       .  A
C238        C358   1.490       .  S
C239        C240   1.407       .  A
C239        H244   1.083       .  S
C240        C241   1.416       .  A
C240        C298   1.482       .  S
C241        C242   1.403       .  A
C241        C498   1.492       .  S
C242        H243   1.084       .  S
C245        C246   1.397       .  A
C245        C250   1.395       .  A
C245        H255   1.083       .  S
C246        C247   1.400       .  A
C246        C251   1.471       .  S
C247        C248   1.394       .  A
C247        F252   1.358       .  S
C248        C249   1.416       .  A
C248        H253   1.079       .  S
C249        C250   1.419       .  A
C250        F254   1.357       .  S
C251        C256   1.404       .  A
C251        C260   1.399       .  A
C256        C257   1.395       .  A
C256        F261   1.358       .  S
C257        C258   1.406       .  A
C257        H262   1.084       .  S
C258        C259   1.411       .  A
C259        C260   1.397       .  A
C259        F263   1.357       .  S
C260        H264   1.084       .  S
C265        C266   1.406       .  A
C265        C270   1.402       .  A
C265        H275   1.078       .  S
C266        C267   1.404       .  A
C266        C271   1.477       .  S
C267        C268   1.390       .  A
C267        F272   1.358       .  S
C268        C269   1.402       .  A
C268        H273   1.079       .  S
C269        C270   1.407       .  A
C270        F274   1.358       .  S
C271        C276   1.404       .  A
C271        C280   1.399       .  A
C276        C277   1.402       .  A
C276        F281   1.357       .  S
C277        C278   1.415       .  A
C277        H282   1.076       .  S
C278        C279   1.417       .  A
C279        C280   1.386       .  A
C279        F283   1.358       .  S
C280        H284   1.081       .  S
C285        C286   1.406       .  A
C285        C290   1.404       .  A
C285        H295   1.084       .  S
C286        C287   1.407       .  A
C286        C291   1.488       .  S
C287        C288   1.397       .  A
C287        F292   1.358       .  S
C288        C289   1.404       .  A
C288        H293   1.084       .  S
C289        C290   1.408       .  A
C290        F294   1.357       .  S
C291        C296   1.410       .  A
C291        C300   1.406       .  A
C296        C297   1.396       .  A
C296        F301   1.357       .  S
C297        C298   1.400       .  A
C297        H302   1.081       .  S
C298        C299   1.406       .  A
C299        C300   1.402       .  A
C299        F303   1.357       .  S
C300        H304   1.082       .  S
C305        C306   1.403   1_655  A
C305        C310   1.394       .  A
C305        H315   1.082       .  S
C306        C307   1.403       .  A
C306        C311   1.477       .  S
C307        C308   1.400       .  A
C307        F312   1.357       .  S
C308        C309   1.409       .  A
C308        H313   1.082       .  S
C309        C310   1.409   1_455  A
C310        F314   1.358       .  S
C311        C316   1.397       .  A
C311        C320   1.403       .  A
C316        C317   1.388       .  A
C316        F321   1.359       .  S
C317        C318   1.420       .  A
C317        H322   1.068       .  S
C318        C319   1.418       .  A
C319        C320   1.404       .  A
C319        F323   1.357       .  S
C320        H324   1.077       .  S
C325        C326   1.406   1_655  A
C325        C330   1.394       .  A
C325        H335   1.083       .  S
C326        C327   1.406       .  A
C326        C331   1.476       .  S
C327        C328   1.393       .  A
C327        F332   1.358       .  S
C328        C329   1.403   1_455  A
C328        H333   1.084       .  S
C329        C330   1.403       .  A
C330        F334   1.358       .  S
C331        C336   1.402   1_455  A
C331        C340   1.399       .  A
C336        C337   1.393       .  A
C336        F341   1.358       .  S
C337        C338   1.415   1_655  A
C337        H342   1.080       .  S
C338        C339   1.418       .  A
C339        C340   1.390       .  A
C339        F343   1.357       .  S
C340        H344   1.084       .  S
C345        C346   1.410       .  A
C345        C350   1.410       .  A
C345        H355   1.083       .  S
C346        C347   1.403       .  A
C346        C351   1.487       .  S
C347        C348   1.388       .  A
C347        F352   1.358       .  S
C348        C349   1.406       .  A
C348        H353   1.083       .  S
C349        C350   1.410       .  A
C350        F354   1.357       .  S
C351        C356   1.407       .  A
C351        C360   1.406       .  A
C356        C357   1.405       .  A
C356        F361   1.357       .  S
C357        C358   1.408       .  A
C357        H362   1.085       .  S
C358        C359   1.404       .  A
C359        C360   1.395       .  A
C359        F363   1.357       .  S
C360        H364   1.085       .  S
C365        C366   1.400       .  A
C365        C370   1.398       .  A
C365        H375   1.088       .  S
C366        C367   1.405   1_455  A
C366        C371   1.476       .  S
C367        C368   1.399       .  A
C367        F372   1.358       .  S
C368        C369   1.405   1_655  A
C368        H373   1.087       .  S
C369        C370   1.412       .  A
C370        F374   1.358       .  S
C371        C376   1.398       .  A
C371        C380   1.402   1_455  A
C376        C377   1.391       .  A
C376        F381   1.358       .  S
C377        C378   1.418       .  A
C377        H382   1.086       .  S
C378        C379   1.419   1_455  A
C379        C380   1.403       .  A
C379        F383   1.354       .  S
C380        H384   1.087       .  S
C385        C386   1.402   1_455  A
C385        C390   1.392       .  A
C385        H395   1.081       .  S
C386        C387   1.406       .  A
C386        C391   1.481       .  S
C387        C388   1.401       .  A
C387        F392   1.357       .  S
C388        C389   1.408       .  A
C388        H393   1.082       .  S
C389        C390   1.409   1_655  A
C390        F394   1.357       .  S
C391        C396   1.404   1_655  A
C391        C400   1.400       .  A
C396        C397   1.395       .  A
C396        F401   1.358       .  S
C397        C398   1.414   1_455  A
C397        H402   1.077       .  S
C398        C399   1.421       .  A
C399        C400   1.398       .  A
C399        F403   1.358       .  S
C400        H404   1.082       .  S
C405        C406   1.404       .  A
C405        C410   1.397       .  A
C405        H415   1.083       .  S
C406        C407   1.407       .  A
C406        C411   1.479       .  S
C407        C408   1.396       .  A
C407        F412   1.357       .  S
C408        C409   1.402       .  A
C408        H413   1.083       .  S
C409        C410   1.407       .  A
C410        F414   1.358       .  S
C411        C416   1.403       .  A
C411        C420   1.398       .  A
C416        C417   1.395       .  A
C416        F421   1.357       .  S
C417        C418   1.414       .  A
C417        H422   1.081       .  S
C418        C419   1.420       .  A
C419        C420   1.394       .  A
C419        F423   1.358       .  S
C420        H424   1.083       .  S
C425        C426   1.402       .  A
C425        C430   1.401       .  A
C425        H435   1.084       .  S
C426        C427   1.401       .  A
C426        C431   1.470       .  S
C427        C428   1.393       .  A
C427        F432   1.358       .  S
C428        C429   1.406       .  A
C428        H433   1.084       .  S
C429        C430   1.411       .  A
C430        F434   1.358       .  S
C431        C436   1.393       .  A
C431        C440   1.401       .  A
C436        C437   1.388       .  A
C436        F441   1.359       .  S
C437        C438   1.421       .  A
C437        H442   1.078   1_655  S
C438        C439   1.419       .  A
C439        C440   1.405       .  A
C439        F443   1.357       .  S
C440        H444   1.082       .  S
C445        C446   1.406       .  A
C445        C450   1.403       .  A
C445        H455   1.080       .  S
C446        C447   1.411       .  A
C446        C451   1.489       .  S
C447        C448   1.396       .  A
C447        F452   1.358       .  S
C448        C449   1.402       .  A
C448        H453   1.080       .  S
C449        C450   1.408       .  A
C450        F454   1.357       .  S
C451        C456   1.407       .  A
C451        C460   1.401       .  A
C456        C457   1.403       .  A
C456        F461   1.357       .  S
C457        C458   1.414       .  A
C457        H462   1.079       .  S
C458        C459   1.421       .  A
C459        C460   1.394       .  A
C459        F463   1.357       .  S
C460        H464   1.084       .  S
C465        C466   1.401       .  A
C465        C470   1.396       .  A
C465        H475   1.083       .  S
C466        C467   1.402       .  A
C466        C471   1.471       .  S
C467        C468   1.396       .  A
C467        F472   1.358       .  S
C468        C469   1.406       .  A
C468        H473   1.082       .  S
C469        C470   1.411       .  A
C470        F474   1.358       .  S
C471        C476   1.394       .  A
C471        C480   1.404       .  A
C476        C477   1.386       .  A
C476        F481   1.358       .  S
C477        C478   1.420       .  A
C477        H482   1.077       .  S
C478        C479   1.416       .  A
C479        C480   1.406       .  A
C479        F483   1.353       .  S
C480        H484   1.075       .  S
C485        C486   1.407       .  A
C485        C490   1.409       .  A
C485        H495   1.084       .  S
C486        C487   1.403       .  A
C486        C491   1.485       .  S
C487        C488   1.392       .  A
C487        F492   1.358       .  S
C488        C489   1.408       .  A
C488        H493   1.081       .  S
C489        C490   1.411       .  A
C490        F494   1.357       .  S
C491        C496   1.406       .  A
C491        C500   1.404       .  A
C496        C497   1.396       .  A
C496        F501   1.358       .  S
C497        C498   1.404       .  A
C497        H502   1.082       .  S
C498        C499   1.410       .  A
C499        C500   1.404       .  A
C499        F503   1.358       .  S
C500        H504   1.083       .  S
C505        C506   1.407       .  A
C505        C510   1.403       .  A
C505        H515   1.082       .  S
C506        C507   1.406   1_565  A
C506        C511   1.483       .  S
C507        C508   1.393       .  A
C507        F512   1.358       .  S
C508        C509   1.404   1_545  A
C508        H513   1.083       .  S
C509        C510   1.407       .  A
C510        F514   1.357       .  S
C511        C516   1.406       .  A
C511        C520   1.400   1_565  A
C516        C517   1.404       .  A
C516        F521   1.357       .  S
C517        C518   1.415       .  A
C517        H522   1.079       .  S
C518        C519   1.416   1_565  A
C519        C520   1.386       .  A
C519        F523   1.358       .  S
C520        H524   1.082       .  S
C525        C526   1.404   1_565  A
C525        C530   1.400       .  A
C525        H535   1.084       .  S
C526        C527   1.405       .  A
C526        C531   1.482       .  S
C527        C528   1.399       .  A
C527        F532   1.358       .  S
C528        C529   1.410       .  A
C528        H533   1.084       .  S
C529        C530   1.409   1_545  A
C530        F534   1.357       .  S
C531        C536   1.399       .  A
C531        C540   1.404   1_545  A
C536        C537   1.393       .  A
C536        F541   1.358       .  S
C537        C538   1.419       .  A
C537        H542   1.082       .  S
C538        C539   1.419   1_545  A
C539        C540   1.404       .  A
C539        F543   1.353       .  S
C540        H544   1.082       .  S
C545        C546   1.404       .  A
C545        C550   1.403       .  A
C545        H555   1.083       .  S
C546        C547   1.403       .  A
C546        C551   1.480       .  S
C547        C548   1.397       .  A
C547        F552   1.358       .  S
C548        C549   1.408       .  A
C548        H553   1.082       .  S
C549        C550   1.408       .  A
C550        F554   1.357       .  S
C551        C556   1.405       .  A
C551        C560   1.403       .  A
C556        C557   1.396       .  A
C556        F561   1.358       .  S
C557        C558   1.406       .  A
C557        H562   1.082       .  S
C558        C559   1.410       .  A
C559        C560   1.402       .  A
C559        F563   1.357       .  S
C560        H564   1.082       .  S
C565        C566   1.405       .  A
C565        C570   1.405       .  A
C565        H575   1.081       .  S
C566        C567   1.403   1_565  A
C566        C571   1.483       .  S
C567        C568   1.402       .  A
C567        F572   1.357       .  S
C568        C569   1.407   1_545  A
C568        H573   1.081       .  S
C569        C570   1.412       .  A
C570        F574   1.357       .  S
C571        C576   1.395       .  A
C571        C580   1.404       .  A
C576        C577   1.392       .  A
C576        F581   1.358       .  S
C577        C578   1.421       .  A
C577        H582   1.082       .  S
C578        C579   1.420       .  A
C579        C580   1.410       .  A
C579        F583   1.357       .  S
C580        H584   1.085       .  S
C585        C586   1.403   1_545  A
C585        C590   1.401       .  A
C585        H595   1.084       .  S
C586        C587   1.406       .  A
C586        C591   1.482       .  S
C587        C588   1.395       .  A
C587        F592   1.358       .  S
C588        C589   1.406       .  A
C588        H593   1.084       .  S
C589        C590   1.410   1_565  A
C590        F594   1.357       .  S
C591        C596   1.398       .  A
C591        C600   1.403       .  A
C596        C597   1.388       .  A
C596        F601   1.359       .  S
C597        C598   1.421   1_565  A
C597        H602   1.076       .  S
C598        C599   1.421       .  A
C599        C600   1.406   1_545  A
C599        F603   1.357       .  S
C600        H604   1.083       .  S
C605        C606   1.405       .  A
C605        C610   1.407       .  A
C605        H615   1.084       .  S
C606        C607   1.406       .  A
C606        C611   1.489       .  S
C607        C608   1.396       .  A
C607        F612   1.358       .  S
C608        C609   1.407       .  A
C608        H613   1.083       .  S
C609        C610   1.413       .  A
C610        F614   1.357       .  S
C611        C616   1.398       .  A
C611        C620   1.405       .  A
C616        C617   1.390       .  A
C616        F621   1.358       .  S
C617        C618   1.421       .  A
C617        H622   1.079   1_565  S
C618        C619   1.422       .  A
C619        C620   1.410       .  A
C619        F623   1.357       .  S
C620        H624   1.082       .  S
C625        C626   1.401       .  A
C625        C630   1.403       .  A
C625        H635   1.086       .  S
C626        C627   1.395       .  A
C626        C631   1.469       .  S
C627        C628   1.385       .  A
C627        F632   1.359       .  S
C628        C629   1.420       .  A
C628        H633   1.083       .  S
C629        C630   1.416       .  A
C630        F634   1.356       .  S
C631        C636   1.402       .  A
C631        C640   1.402       .  A
C636        C637   1.395       .  A
C636        F641   1.358       .  S
C637        C638   1.406       .  A
C637        H642   1.084       .  S
C638        C639   1.406       .  A
C639        C640   1.395       .  A
C639        F643   1.357       .  S
C640        H644   1.084       .  S
C645        C646   1.405       .  A
C645        C650   1.395       .  A
C645        H655   1.081       .  S
C646        C647   1.406       .  A
C646        C651   1.481       .  S
C647        C648   1.401       .  A
C647        F652   1.357       .  S
C648        C649   1.405       .  A
C648        H653   1.080       .  S
C649        C650   1.405       .  A
C650        F654   1.358       .  S
C651        C656   1.406       .  A
C651        C660   1.405       .  A
C656        C657   1.394       .  A
C656        F661   1.358       .  S
C657        C658   1.403       .  A
C657        H662   1.083       .  S
C658        C659   1.407       .  A
C659        C660   1.401       .  A
C659        F663   1.358       .  S
C660        H664   1.082       .  S
C665        C666   1.406       .  A
C665        C670   1.403       .  A
C665        H675   1.085       .  S
C666        C667   1.406       .  A
C666        C671   1.485       .  S
C667        C668   1.398       .  A
C667        F672   1.358       .  S
C668        C669   1.406       .  A
C668        H673   1.084       .  S
C669        C670   1.407       .  A
C670        F674   1.357       .  S
C671        C676   1.407       .  A
C671        C680   1.404       .  A
C676        C677   1.402       .  A
C676        F681   1.357       .  S
C677        C678   1.405       .  A
C677        H682   1.079       .  S
C678        C679   1.407       .  A
C679        C680   1.398       .  A
C679        F683   1.357       .  S
C680        H684   1.080       .  S
C685        C686   1.399       .  A
C685        C690   1.392       .  A
C685        H695   1.082       .  S
C686        C687   1.405       .  A
C686        C691   1.473       .  S
C687        C688   1.400       .  A
C687        F692   1.357       .  S
C688        C689   1.405       .  A
C688        H693   1.081       .  S
C689        C690   1.411       .  A
C690        F694   1.358       .  S
C691        C696   1.404       .  A
C691        C700   1.403       .  A
C696        C697   1.397       .  A
C696        F701   1.358       .  S
C697        C698   1.405       .  A
C697        H702   1.080       .  S
C698        C699   1.406       .  A
C699        C700   1.396       .  A
C699        F703   1.357       .  S
C700        H704   1.080       .  S
C705        C706   1.407       .  A
C705        C710   1.407       .  A
C705        H715   1.085       .  S
C706        C707   1.402       .  A
C706        C711   1.484       .  S
C707        C708   1.393       .  A
C707        F712   1.358       .  S
C708        C709   1.409       .  A
C708        H713   1.085       .  S
C709        C710   1.410       .  A
C710        F714   1.357       .  S
C711        C716   1.405       .  A
C711        C720   1.406       .  A
C716        C717   1.400       .  A
C716        F721   1.357       .  S
C717        C718   1.405       .  A
C717        H722   1.083       .  S
C718        C719   1.405       .  A
C719        C720   1.399       .  A
C719        F723   1.358       .  S
C720        H724   1.084       .  S
C725        C726   1.405       .  A
C725        C730   1.399       .  A
C725        H735   1.083       .  S
C726        C727   1.410       .  A
C726        C731   1.495       .  S
C727        C728   1.406       .  A
C727        F732   1.357       .  S
C728        C729   1.407       .  A
C728        H733   1.083       .  S
C729        C730   1.409       .  A
C730        F734   1.358       .  S
C731        C736   1.410       .  A
C731        C740   1.407       .  A
C736        C737   1.400       .  A
C736        F741   1.358       .  S
C737        C738   1.403       .  A
C737        H742   1.083       .  S
C738        C739   1.408       .  A
C739        C740   1.404       .  A
C739        F743   1.357       .  S
C740        H744   1.082       .  S
C745        C746   1.406       .  A
C745        C750   1.398       .  A
C745        H755   1.079       .  S
C746        C747   1.409       .  A
C746        C751   1.488       .  S
C747        C748   1.402       .  A
C747        F752   1.357       .  S
C748        C749   1.407       .  A
C748        H753   1.079       .  S
C749        C750   1.406       .  A
C750        F754   1.357       .  S
C751        C756   1.410       .  A
C751        C760   1.403       .  A
C756        C757   1.404       .  A
C756        F761   1.357       .  S
C757        C758   1.405       .  A
C757        H762   1.084       .  S
C758        C759   1.409       .  A
C759        C760   1.394       .  A
C759        F763   1.358       .  S
C760        H764   1.085       .  S
C765        C766   1.398       .  A
C765        C770   1.390       .  A
C765        H775   1.084       .  S
C766        C767   1.408       .  A
C766        C771   1.478       .  S
C767        C768   1.405       .  A
C767        F772   1.357       .  S
C768        C769   1.404       .  A
C768        H773   1.083       .  S
C769        C770   1.410       .  A
C770        F774   1.358       .  S
C771        C776   1.404       .  A
C771        C780   1.405       .  A
C776        C777   1.399       .  A
C776        F781   1.357       .  S
C777        C778   1.405       .  A
C777        H782   1.083       .  S
C778        C779   1.407       .  A
C779        C780   1.397       .  A
C779        F783   1.358       .  S
C780        H784   1.084       .  S
C785        C786   1.404       .  A
C785        C790   1.405       .  A
C785        H795   1.080       .  S
C786        C787   1.407       .  A
C786        C791   1.486       .  S
C787        C788   1.401       .  A
C787        F792   1.358       .  S
C788        C789   1.405       .  A
C788        H793   1.081       .  S
C789        C790   1.410       .  A
C790        F794   1.357       .  S
C791        C796   1.408       .  A
C791        C800   1.402       .  A
C796        C797   1.408       .  A
C796        F801   1.357       .  S
C797        C798   1.407       .  A
C797        H802   1.082       .  S
C798        C799   1.411       .  A
C799        C800   1.398       .  A
C799        F803   1.358       .  S
C800        H804   1.081       .  S
C805        C806   1.403       .  A
C805        C810   1.396       .  A
C805        H815   1.083       .  S
C806        C807   1.409       .  A
C806        C811   1.487       .  S
C807        C808   1.405       .  A
C807        F812   1.357       .  S
C808        C809   1.406       .  A
C808        H813   1.083       .  S
C809        C810   1.409       .  A
C810        F814   1.358       .  S
C811        C816   1.408       .  A
C811        C820   1.406       .  A
C816        C817   1.400       .  A
C816        F821   1.357       .  S
C817        C818   1.403       .  A
C817        H822   1.082       .  S
C818        C819   1.406       .  A
C819        C820   1.401       .  A
C819        F823   1.358       .  S
C820        H824   1.082       .  S
C825        C826   1.402       .  A
C825        C830   1.398       .  A
C825        H835   1.086       .  S
C826        C827   1.402       .  A
C826        C831   1.475       .  S
C827        C828   1.400       .  A
C827        F832   1.357       .  S
C828        C829   1.408       .  A
C828        H833   1.085       .  S
C829        C830   1.407       .  A
C830        F834   1.357       .  S
C831        C836   1.403       .  A
C831        C840   1.403       .  A
C836        C837   1.399       .  A
C836        F841   1.357       .  S
C837        C838   1.405       .  A
C837        H842   1.085       .  S
C838        C839   1.406       .  A
C839        C840   1.400       .  A
C839        F843   1.358       .  S
C840        H844   1.085       .  S
C845        C846   1.400       .  A
C845        C850   1.395       .  A
C845        H855   1.083       .  S
C846        C847   1.410       .  A
C846        C851   1.491       .  S
C847        C848   1.408       .  A
C847        F852   1.357       .  S
C848        C849   1.408       .  A
C848        H853   1.082       .  S
C849        C850   1.416       .  A
C850        F854   1.358       .  S
C851        C856   1.409       .  A
C851        C860   1.406       .  A
C856        C857   1.404       .  A
C856        F861   1.357       .  S
C857        C858   1.405       .  A
C857        H862   1.083       .  S
C858        C859   1.408       .  A
C859        C860   1.399       .  A
C859        F863   1.357       .  S
C860        H864   1.083       .  S
C865        C866   1.402       .  A
C865        C870   1.392       .  A
C865        H875   1.081       .  S
C866        C867   1.407       .  A
C866        C871   1.481       .  S
C867        C868   1.404       .  A
C867        F872   1.357       .  S
C868        C869   1.406       .  A
C868        H873   1.081       .  S
C869        C870   1.408       .  A
C870        F874   1.358       .  S
C871        C876   1.405       .  A
C871        C880   1.405       .  A
C876        C877   1.401       .  A
C876        F881   1.357       .  S
C877        C878   1.407       .  A
C877        H882   1.086       .  S
C878        C879   1.404       .  A
C879        C880   1.394       .  A
C879        F883   1.358       .  S
C880        H884   1.086       .  S
C885        C886   1.402       .  A
C885        C890   1.393       .  A
C885        H895   1.084       .  S
C886        C887   1.408       .  A
C886        C891   1.480       .  S
C887        C888   1.401       .  A
C887        F892   1.357       .  S
C888        C889   1.404       .  A
C888        H893   1.084       .  S
C889        C890   1.407       .  A
C890        F894   1.358       .  S
C891        C896   1.409       .  A
C891        C900   1.403       .  A
C896        C897   1.397       .  A
C896        F901   1.358       .  S
C897        C898   1.401       .  A
C897        H902   1.085       .  S
C898        C899   1.406       .  A
C899        C900   1.398       .  A
C899        F903   1.357       .  S
C900        H904   1.085       .  S
C905        C906   1.406       .  A
C905        C910   1.405       .  A
C905        H915   1.085       .  S
C906        C907   1.411       .  A
C906        C911   1.497       .  S
C907        C908   1.401       .  A
C907        F912   1.358       .  S
C908        C909   1.405       .  A
C908        H913   1.086       .  S
C909        C910   1.409       .  A
C910        F914   1.357       .  S
C911        C916   1.412       .  A
C911        C920   1.401       .  A
C916        C917   1.412       .  A
C916        F921   1.357       .  S
C917        C918   1.410       .  A
C917        H922   1.082       .  S
C918        C919   1.414       .  A
C919        C920   1.394       .  A
C919        F923   1.358       .  S
C920        H924   1.082       .  S
C925        C926   1.406       .  A
C925        C930   1.400       .  A
C925        H935   1.079       .  S
C926        C927   1.407       .  A
C926        C931   1.486       .  S
C927        C928   1.402       .  A
C927        F932   1.358       .  S
C928        C929   1.405       .  A
C928        H933   1.080       .  S
C929        C930   1.406       .  A
C930        F934   1.357       .  S
C931        C936   1.409       .  A
C931        C940   1.404       .  A
C936        C937   1.403       .  A
C936        F941   1.357       .  S
C937        C938   1.405       .  A
C937        H942   1.081       .  S
C938        C939   1.407       .  A
C939        C940   1.397       .  A
C939        F943   1.358       .  S
C940        H944   1.080       .  S
C945        C946   1.404       .  A
C945        C950   1.396       .  A
C945        H955   1.084       .  S
C946        C947   1.408       .  A
C946        C951   1.487       .  S
C947        C948   1.403       .  A
C947        F952   1.357       .  S
C948        C949   1.407       .  A
C948        H953   1.083       .  S
C949        C950   1.406       .  A
C950        F954   1.358       .  S
C951        C956   1.407       .  A
C951        C960   1.404       .  A
C956        C957   1.400       .  A
C956        F961   1.358       .  S
C957        C958   1.407       .  A
C957        H962   1.083       .  S
C958        C959   1.411       .  A
C959        C960   1.403       .  A
C959        F963   1.357       .  S
C960        H964   1.083       .  S
C965        C966   1.401       .  A
C965        C970   1.396       .  A
C965        H975   1.081       .  S
C966        C967   1.406       .  A
C966        C971   1.478       .  S
C967        C968   1.404       .  A
C967        F972   1.357       .  S
C968        C969   1.406       .  A
C968        H973   1.081       .  S
C969        C970   1.409       .  A
C970        F974   1.358       .  S
C971        C976   1.404       .  A
C971        C980   1.404       .  A
C976        C977   1.400       .  A
C976        F981   1.357       .  S
C977        C978   1.407       .  A
C977        H982   1.081       .  S
C978        C979   1.406       .  A
C979        C980   1.397       .  A
C979        F983   1.358       .  S
C980        H984   1.081       .  S
C985        C986   1.402       .  A
C985        C990   1.394       .  A
C985        H995   1.082       .  S
C986        C987   1.408       .  A
C986        C991   1.483       .  S
C987        C988   1.404       .  A
C987        F992   1.357       .  S
C988        C989   1.406       .  A
C988        H993   1.082       .  S
C989        C990   1.409       .  A
C990        F994   1.358       .  S
C991        C996   1.407       .  A
C991       C1000   1.405       .  A
C996        C997   1.401       .  A
C996       F1001   1.358       .  S
C997        C998   1.406       .  A
C997       H1002   1.083       .  S
C998        C999   1.405       .  A
C999       C1000   1.398       .  A
C999       F1003   1.357       .  S
C1000      H1004   1.083       .  S
C1005      C1006   1.402       .  A
C1005      C1010   1.401       .  A
C1005      H1015   1.080       .  S
C1006      C1007   1.405       .  A
C1006      C1011   1.477       .  S
C1007      C1008   1.398       .  A
C1007      F1012   1.358       .  S
C1008      C1009   1.406       .  A
C1008      H1013   1.081       .  S
C1009      C1010   1.409       .  A
C1010      F1014   1.356       .  S
C1011      C1016   1.403       .  A
C1011      C1020   1.403       .  A
C1016      C1017   1.397       .  A
C1016      F1021   1.358       .  S
C1017      C1018   1.406       .  A
C1017      H1022   1.085       .  S
C1018      C1019   1.406       .  A
C1019      C1020   1.402       .  A
C1019      F1023   1.357       .  S
C1020      H1024   1.085       .  S
C1025      C1026   1.406       .  A
C1025      C1030   1.395       .  A
C1025      H1035   1.082       .  S
C1026      C1027   1.408       .  A
C1026      C1031   1.488       .  S
C1027      C1028   1.403       .  A
C1027      F1032   1.357       .  S
C1028      C1029   1.406       .  A
C1028      H1033   1.082       .  S
C1029      C1030   1.404       .  A
C1030      F1034   1.357       .  S
C1031      C1036   1.405       .  A
C1031      C1040   1.409       .  A
C1036      C1037   1.390       .  A
C1036      F1041   1.358       .  S
C1037      C1038   1.406       .  A
C1037      H1042   1.085       .  S
C1038      C1039   1.409       .  A
C1039      C1040   1.406       .  A
C1039      F1043   1.357       .  S
C1040      H1044   1.085       .  S
C1045      C1046   1.407       .  A
C1045      C1050   1.406       .  A
C1045      H1055   1.083       .  S
C1046      C1047   1.409       .  A
C1046      C1051   1.492       .  S
C1047      C1048   1.397       .  A
C1047      F1052   1.357       .  S
C1048      C1049   1.401       .  A
C1048      H1053   1.084       .  S
C1049      C1050   1.410       .  A
C1050      F1054   1.357       .  S
C1051      C1056   1.410       .  A
C1051      C1060   1.403       .  A
C1056      C1057   1.409       .  A
C1056      F1061   1.357       .  S
C1057      C1058   1.407       .  A
C1057      H1062   1.083       .  S
C1058      C1059   1.409       .  A
C1059      C1060   1.396       .  A
C1059      F1063   1.358       .  S
C1060      H1064   1.084       .  S
C1065      C1066   1.405       .  A
C1065      C1070   1.397       .  A
C1065      H1075   1.081       .  S
C1066      C1067   1.406       .  A
C1066      C1071   1.479       .  S
C1067      C1068   1.396       .  A
C1067      F1072   1.357       .  S
C1068      C1069   1.404       .  A
C1068      H1073   1.082       .  S
C1069      C1070   1.404       .  A
C1070      F1074   1.357       .  S
C1071      C1076   1.405       .  A
C1071      C1080   1.406       .  A
C1076      C1077   1.394       .  A
C1076      F1081   1.358       .  S
C1077      C1078   1.407       .  A
C1077      H1082   1.083       .  S
C1078      C1079   1.405       .  A
C1079      C1080   1.399       .  A
C1079      F1083   1.357       .  S
C1080      H1084   1.085       .  S
C1085      C1086   1.407       .  A
C1085      C1090   1.393       .  A
C1085      H1095   1.084       .  S
C1086      C1087   1.413       .  A
C1086      C1091   1.495       .  S
C1087      C1088   1.404       .  A
C1087      F1092   1.357       .  S
C1088      C1089   1.405       .  A
C1088      H1093   1.085       .  S
C1089      C1090   1.401       .  A
C1090      F1094   1.358       .  S
C1091      C1096   1.410       .  A
C1091      C1100   1.409       .  A
C1096      C1097   1.396       .  A
C1096      F1101   1.358       .  S
C1097      C1098   1.404       .  A
C1097      H1102   1.085       .  S
C1098      C1099   1.407       .  A
C1099      C1100   1.404       .  A
C1099      F1103   1.357       .  S
C1100      H1104   1.083       .  S
C1105      C1106   1.405       .  A
C1105      C1110   1.393       .  A
C1105      H1115   1.083       .  S
C1106      C1107   1.408       .  A
C1106      C1111   1.485       .  S
C1107      C1108   1.403       .  A
C1107      F1112   1.357       .  S
C1108      C1109   1.405       .  A
C1108      H1113   1.082       .  S
C1109      C1110   1.402       .  A
C1110      F1114   1.357       .  S
C1111      C1116   1.404       .  A
C1111      C1120   1.408       .  A
C1116      C1117   1.390       .  A
C1116      F1121   1.358       .  S
C1117      C1118   1.406       .  A
C1117      H1122   1.084       .  S
C1118      C1119   1.409       .  A
C1119      C1120   1.406       .  A
C1119      F1123   1.357       .  S
C1120      H1124   1.084       .  S
C1125      C1126   1.406       .  A
C1125      C1130   1.394       .  A
C1125      H1135   1.081       .  S
C1126      C1127   1.410       .  A
C1126      C1131   1.491       .  S
C1127      C1128   1.404       .  A
C1127      F1132   1.357       .  S
C1128      C1129   1.407       .  A
C1128      H1133   1.082       .  S
C1129      C1130   1.403       .  A
C1130      F1134   1.357       .  S
C1131      C1136   1.409       .  A
C1131      C1140   1.407       .  A
C1136      C1137   1.395       .  A
C1136      F1141   1.358       .  S
C1137      C1138   1.404       .  A
C1137      H1142   1.085       .  S
C1138      C1139   1.409       .  A
C1139      C1140   1.403       .  A
C1139      F1143   1.357       .  S
C1140      H1144   1.083       .  S
C1145      C1146   1.402       .  A
C1145      C1150   1.401       .  A
C1145      H1155   1.083       .  S
C1146      C1147   1.402       .  A
C1146      C1151   1.475       .  S
C1147      C1148   1.397       .  A
C1147      F1152   1.358       .  S
C1148      C1149   1.409       .  A
C1148      H1153   1.083       .  S
C1149      C1150   1.410       .  A
C1150      F1154   1.357       .  S
C1151      C1156   1.404       .  A
C1151      C1160   1.403       .  A
C1156      C1157   1.400       .  A
C1156      F1161   1.357       .  S
C1157      C1158   1.405       .  A
C1157      H1162   1.085       .  S
C1158      C1159   1.406       .  A
C1159      C1160   1.398       .  A
C1159      F1163   1.357       .  S
C1160      H1164   1.084       .  S
C1165      C1166   1.409       .  A
C1165      C1170   1.408       .  A
C1165      H1175   1.081       .  S
C1166      C1167   1.411       .  A
C1166      C1171   1.497       .  S
C1167      C1168   1.398       .  A
C1167      F1172   1.357       .  S
C1168      C1169   1.400       .  A
C1168      H1173   1.081       .  S
C1169      C1170   1.408       .  A
C1170      F1174   1.357       .  S
C1171      C1176   1.411       .  A
C1171      C1180   1.405       .  A
C1176      C1177   1.410       .  A
C1176      F1181   1.357       .  S
C1177      C1178   1.408       .  A
C1177      H1182   1.081       .  S
C1178      C1179   1.408       .  A
C1179      C1180   1.397       .  A
C1179      F1183   1.358       .  S
C1180      H1184   1.081       .  S
C1185      C1186   1.406       .  A
C1185      C1190   1.400       .  A
C1185      H1195   1.082       .  S
C1186      C1187   1.409       .  A
C1186      C1191   1.487       .  S
C1187      C1188   1.400       .  A
C1187      F1192   1.357       .  S
C1188      C1189   1.401       .  A
C1188      H1193   1.082       .  S
C1189      C1190   1.404       .  A
C1190      F1194   1.358       .  S
C1191      C1196   1.408       .  A
C1191      C1200   1.404       .  A
C1196      C1197   1.403       .  A
C1196      F1201   1.357       .  S
C1197      C1198   1.405       .  A
C1197      H1202   1.082       .  S
C1198      C1199   1.408       .  A
C1199      C1200   1.399       .  A
C1199      F1203   1.358       .  S
C1200      H1204   1.083       .  S
