geometry optimzed in LAMMPS
_audit_creation_date              2020-11-30 
_audit_creation_method            'lammps2cif' 
_symmetry_space_group_name_H-M    'P1' 
_symmetry_Int_Tables_number       1 
_symmetry_cell_setting            triclinic 
loop_ 
_symmetry_equiv_pos_as_xyz 
  x,y,z 
_cell_length_a                    59.66891874 
_cell_length_b                    58.43708667812583 
_cell_length_c                    59.848644983884704 
_cell_angle_alpha                 90.49744299656933 
_cell_angle_beta                  90.22407930003978 
_cell_angle_gamma                 90.77777354971026 
loop_ 
_atom_site_label 
_atom_site_type_symbol 
_atom_site_fract_x 
_atom_site_fract_y 
_atom_site_fract_z 
_atom_site_charge 
N1          N  0.74562139  0.92384728  0.42956656    -0.02700
C2          C  0.72935815  0.91795562  0.41431902    -0.00100
C3          C  0.73739652  0.90243697  0.39890717    -0.23000
C4          C  0.75906459  0.89840223  0.40451190    -0.23200
C5          C  0.76371643  0.91105633  0.42361152    -0.00200
H6          H  0.72852045  0.89538399  0.38455665     0.13600
H7          H  0.76972289  0.88579939  0.39672974     0.13600
N8          N  0.74439178  0.92985084  0.52699865    -0.02700
C9          C  0.72791442  0.92740540  0.54262883    -0.00100
C10         C  0.73456816  0.91308217  0.55951589    -0.23000
C11         C  0.75576060  0.90638463  0.55456373    -0.23200
C12         C  0.76160266  0.91662193  0.53466361    -0.00200
H13         H  0.72520144  0.90864527  0.57435506     0.13600
H14         H  0.76557013  0.89428047  0.56392451     0.13600
N15         N  0.74322103  0.02445841  0.42940529    -0.02700
C16         C  0.72846092  0.02890387  0.41239704    -0.00100
C17         C  0.73355221  0.04949756  0.40231938    -0.23000
C18         C  0.75199813  0.05821261  0.41273191    -0.23200
C19         C  0.75767663  0.04295654  0.42916049    -0.00200
H20         H  0.72496882  0.05706635  0.38828428     0.13600
H21         H  0.76025272  0.07436316  0.40908937     0.13600
N22         N  0.74048974  0.02961175  0.51594580    -0.02700
C23         C  0.72114464  0.04197330  0.51723590    -0.00100
C24         C  0.72585814  0.06490466  0.51383614    -0.23000
C25         C  0.74857786  0.06715135  0.51214701    -0.23200
C26         C  0.75735056  0.04550879  0.51391531    -0.00200
H27         H  0.71445355  0.07893873  0.51638097     0.13600
H28         H  0.75788242  0.08316484  0.51257451     0.13600
O29         O  0.76174975  0.99845973  0.45332456    -0.73600
O30         O  0.76256057  0.95262755  0.49976818    -0.73700
O31         O  0.76313273  0.95096083  0.45408777    -0.73700
O32         O  0.76030440  0.99937122  0.49867293    -0.73800
O33         O  0.72315170  0.99849312  0.49667747    -0.73700
O34         O  0.72586580  0.94890565  0.45359780    -0.73700
O35         O  0.72527028  0.95170995  0.49963570    -0.73600
O36         O  0.72456674  0.99601165  0.45125507    -0.73700
Ni37       Ni  0.76321912  0.97532470  0.47644700     1.25400
Ni38       Ni  0.72340747  0.97356004  0.47526281     1.25400
C39         C  0.74315692  0.00539188  0.44503448     0.88600
C40         C  0.74407118  0.94507520  0.50787980     0.88500
C41         C  0.74485129  0.94179146  0.44654111     0.88500
C42         C  0.74132049  0.00784726  0.50406089     0.88700
N43         N  0.95036215  0.72268806  0.42080505    -0.02700
C44         C  0.94983980  0.70870306  0.40228410    -0.00100
C45         C  0.93412637  0.71608047  0.38707943    -0.23000
C46         C  0.92456919  0.73511924  0.39603842    -0.23200
C47         C  0.93467879  0.73901765  0.41650979    -0.00200
H48         H  0.93036544  0.70856521  0.37087349     0.13600
H49         H  0.91117867  0.74486964  0.38866067     0.13600
N50         N  0.94936666  0.72212277  0.52254049    -0.02700
C51         C  0.95251369  0.70685246  0.53933549    -0.00100
C52         C  0.95393112  0.71815279  0.55973356    -0.23000
C53         C  0.94974096  0.74065089  0.55588567    -0.23200
C54         C  0.94599414  0.74252427  0.53324012    -0.00200
H55         H  0.95445327  0.71028160  0.57603677     0.13600
H56         H  0.94632527  0.75341296  0.56859482     0.13600
N57         N  0.04137858  0.72047339  0.42501130    -0.02700
C58         C  0.04132815  0.70446394  0.40821266    -0.00100
C59         C  0.04711217  0.71468505  0.38821365    -0.23000
C60         C  0.05204188  0.73712610  0.39279511    -0.23200
C61         C  0.04902827  0.74019336  0.41543034    -0.00200
H62         H  0.05033741  0.70601446  0.37251257     0.13600
H63         H  0.06001164  0.74903162  0.38145896     0.13600
N64         N  0.04004241  0.72017281  0.52185203    -0.02700
C65         C  0.04646793  0.70131357  0.53357628    -0.00100
C66         C  0.06640441  0.70568330  0.54468168    -0.23000
C67         C  0.07218163  0.72791981  0.54059659    -0.23200
C68         C  0.05574999  0.73677943  0.52694132    -0.00200
H69         H  0.07464536  0.69461416  0.55647506     0.13600
H70         H  0.08638213  0.73708787  0.54780713     0.13600
O71         O  0.01589840  0.73969968  0.49704144    -0.73600
O72         O  0.97270044  0.74067432  0.44875648    -0.73700
O73         O  0.97064673  0.74038225  0.49450915    -0.73700
O74         O  0.01838466  0.73966690  0.45117119    -0.73800
O75         O  0.01760956  0.70165894  0.45099890    -0.73700
O76         O  0.96937376  0.70231593  0.49418098    -0.73700
O77         O  0.97192941  0.70259238  0.44768424    -0.73600
O78         O  0.01483452  0.70165992  0.49664453    -0.73700
Ni79       Ni  0.99441598  0.74139881  0.47285310     1.25400
Ni80       Ni  0.99329039  0.70070512  0.47233581     1.25400
C81         C  0.02265595  0.72058694  0.50478527     0.88600
C82         C  0.96549810  0.72189059  0.43987496     0.88500
C83         C  0.96296399  0.72150064  0.50245196     0.88500
C84         C  0.02566807  0.72052955  0.44353208     0.88700
N85         N  0.25292474  0.91470235  0.43734995    -0.02700
C86         C  0.24065619  0.89473243  0.43704067    -0.00100
C87         C  0.25229477  0.87738505  0.42668719    -0.23000
C88         C  0.27237340  0.88638014  0.42048420    -0.23200
C89         C  0.27245398  0.90915139  0.42677926    -0.00200
H90         H  0.24660497  0.85992390  0.42385178     0.13600
H91         H  0.28488196  0.87775805  0.41054912     0.13600
N92         N  0.24475151  0.91319460  0.52442123    -0.02700
C93         C  0.22938094  0.89555962  0.52305963    -0.00100
C94         C  0.23982735  0.87496143  0.52689200    -0.23000
C95         C  0.26173447  0.87981153  0.53185814    -0.23200
C96         C  0.26436184  0.90325331  0.53086700    -0.00200
H97         H  0.23183847  0.85826838  0.52795595     0.13600
H98         H  0.27376468  0.86777739  0.53823726     0.13600
N99         N  0.24377911  0.01479154  0.43417606    -0.02700
C100        C  0.26015580  0.02029081  0.41892711    -0.00100
C101        C  0.25369473  0.03872747  0.40622678    -0.23000
C102        C  0.23279467  0.04450960  0.41287356    -0.23200
C103        C  0.22693590  0.02992856  0.42993030    -0.00200
H104        H  0.26274519  0.04617737  0.39236326     0.13600
H105        H  0.22308657  0.05859025  0.40654370     0.13600
N106        N  0.23550306  0.00891076  0.53422897    -0.02700
C107        C  0.24854213  0.00997725  0.55317100    -0.00100
C108        C  0.23741370  0.02099222  0.57028877    -0.23000
C109        C  0.21694216  0.02664341  0.56232421    -0.23200
C110        C  0.21602758  0.01938430  0.54035783    -0.00200
H111        H  0.24354592  0.02421580  0.58709221     0.13600
H112        H  0.20453109  0.03659187  0.57111991     0.13600
O113        O  0.26662475  0.94516749  0.46019878    -0.73600
O114        O  0.25872687  0.99012051  0.50762078    -0.73700
O115        O  0.26270887  0.94379943  0.50550176    -0.73700
O116        O  0.26254454  0.99184761  0.46100207    -0.73800
O117        O  0.22558272  0.98762985  0.45747812    -0.73700
O118        O  0.22566875  0.94065535  0.50275166    -0.73700
O119        O  0.22174294  0.98697361  0.50347720    -0.73600
O120        O  0.22964511  0.94045921  0.45750225    -0.73700
Ni121      Ni  0.26393203  0.96807047  0.48365501     1.25400
Ni122      Ni  0.22438286  0.96396639  0.48010069     1.25400
C123        C  0.24952542  0.93450993  0.45183747     0.88600
C124        C  0.23886265  0.99515722  0.51411645     0.88500
C125        C  0.24422977  0.93377689  0.51096935     0.88500
C126        C  0.24403190  0.99735783  0.45147572     0.88700
N127        N  0.45262059  0.92281774  0.22664360    -0.02700
C128        C  0.43910069  0.91541242  0.24366177    -0.00100
C129        C  0.42884104  0.89482507  0.23811312    -0.23000
C130        C  0.43601749  0.88901146  0.21729832    -0.23200
C131        C  0.45058400  0.90612043  0.21059136    -0.00200
H132        H  0.41676592  0.88537908  0.24800111     0.13600
H133        H  0.43187915  0.87334650  0.20831493     0.13600
N134        N  0.55169581  0.93843442  0.22117729    -0.02700
C135        C  0.56244629  0.93800133  0.20105407    -0.00100
C136        C  0.58447565  0.94508882  0.20348537    -0.23000
C137        C  0.58798243  0.94877124  0.22579351    -0.23200
C138        C  0.56795427  0.94399891  0.23642747    -0.00200
H139        H  0.59746095  0.94408839  0.19094386     0.13600
H140        H  0.60413857  0.95158051  0.23372298     0.13600
N141        N  0.45075072  0.02599946  0.22928443    -0.02700
C142        C  0.44925262  0.04437938  0.21518905    -0.00100
C143        C  0.43410011  0.06006325  0.22308448    -0.23000
C144        C  0.42588688  0.05171842  0.24254904    -0.23200
C145        C  0.43597612  0.03093125  0.24610071    -0.00200
H146        H  0.42985351  0.07624180  0.21558544     0.13600
H147        H  0.41287696  0.05939704  0.25257840     0.13600
N148        N  0.54307967  0.02643347  0.22618419    -0.02700
C149        C  0.54432263  0.04409404  0.21130087    -0.00100
C150        C  0.55250438  0.06356278  0.22214398    -0.23000
C151        C  0.55757781  0.05767347  0.24361846    -0.23200
C152        C  0.55220658  0.03480615  0.24567052    -0.00200
H153        H  0.55679507  0.07974507  0.21447472     0.13600
H154        H  0.56671979  0.06822457  0.25559720     0.13600
O155        O  0.51928181  0.95410535  0.20510725    -0.73600
O156        O  0.47291606  0.99950252  0.20891328    -0.73700
O157        O  0.51890573  0.99996335  0.20712700    -0.73700
O158        O  0.47350517  0.95168039  0.20766072    -0.73800
O159        O  0.47544985  0.95077972  0.24478500    -0.73700
O160        O  0.51977637  0.99943672  0.24418616    -0.73700
O161        O  0.47390806  0.99795623  0.24602982    -0.73600
O162        O  0.52146369  0.95337156  0.24216094    -0.73700
Ni163      Ni  0.49582907  0.97627456  0.20590903     1.25400
Ni164      Ni  0.49755365  0.97525261  0.24557844     1.25400
C165        C  0.52945706  0.94800849  0.22294390     0.88600
C166        C  0.46624547  0.00691743  0.22801386     0.88500
C167        C  0.52697616  0.00758429  0.22567023     0.88500
C168        C  0.46756661  0.94268584  0.22635036     0.88700
N169        N  0.45680776  0.72688143  0.93355671    -0.02700
C170        C  0.45006152  0.74581546  0.92225290    -0.00100
C171        C  0.43113161  0.74092013  0.90964667    -0.23000
C172        C  0.42621946  0.71839369  0.91253602    -0.23200
C173        C  0.44179999  0.71008205  0.92740046    -0.00200
H174        H  0.42296418  0.75214279  0.89793537     0.13600
H175        H  0.41195579  0.70919493  0.90547535     0.13600
N176        N  0.55678453  0.73200590  0.93339595    -0.02700
C177        C  0.56445730  0.75269667  0.92566579    -0.00100
C178        C  0.58687457  0.75134149  0.92017328    -0.23000
C179        C  0.59307884  0.72920775  0.92324009    -0.23200
C180        C  0.57450594  0.71746006  0.93101669    -0.00200
H181        H  0.59683551  0.76429911  0.91182683     0.13600
H182        H  0.60921972  0.72208593  0.91913448     0.13600
N183        N  0.46484777  0.71590143  0.03042547    -0.02700
C184        C  0.46547742  0.72830013  0.04997189    -0.00100
C185        C  0.45502632  0.71653713  0.06697096    -0.23000
C186        C  0.44745149  0.69637773  0.05810456    -0.23200
C187        C  0.45324934  0.69628613  0.03580571    -0.00200
H188        H  0.45302258  0.72222195  0.08410522     0.13600
H189        H  0.43715443  0.68379962  0.06659194     0.13600
N190        N  0.55226235  0.72237564  0.02860635    -0.02700
C191        C  0.54940129  0.73686364  0.04647695    -0.00100
C192        C  0.55152149  0.72489382  0.06622464    -0.23000
C193        C  0.55718026  0.70301334  0.06073515    -0.23200
C194        C  0.55831223  0.70198080  0.03775931    -0.00200
H195        H  0.55192241  0.73213608  0.08293832     0.13600
H196        H  0.56293466  0.69021244  0.07231526     0.13600
O197        O  0.52842149  0.74682166  0.95689819    -0.73600
O198        O  0.48513687  0.73952128  0.00488382    -0.73700
O199        O  0.53068969  0.74245226  0.00212407    -0.73700
O200        O  0.48245816  0.74425619  0.95897905    -0.73800
O201        O  0.48407362  0.70648975  0.95430787    -0.73700
O202        O  0.53125789  0.70459827  0.99919860    -0.73700
O203        O  0.48572777  0.70177867  0.99980705    -0.73600
O204        O  0.53044872  0.70900430  0.95338150    -0.73700
Ni205      Ni  0.50654658  0.74457325  0.98073036     1.25400
Ni206      Ni  0.50793953  0.70416035  0.97637545     1.25400
C207        C  0.53743477  0.72909530  0.94797058     0.88600
C208        C  0.47873430  0.71930675  0.01070236     0.88500
C209        C  0.53816247  0.72324752  0.00874037     0.88500
C210        C  0.47518200  0.72577153  0.94952432     0.88700
N211        N  0.46121395  0.91830959  0.71833294    -0.02700
C212        C  0.45608237  0.90925639  0.69775579    -0.00100
C213        C  0.46034933  0.88614797  0.69712076    -0.23000
C214        C  0.46728091  0.88028534  0.71804877    -0.23200
C215        C  0.46689113  0.89991281  0.73115695    -0.00200
H216        H  0.45586276  0.87426920  0.68380935     0.13600
H217        H  0.46936728  0.86295609  0.72389009     0.13600
N218        N  0.55145204  0.92772439  0.72173041    -0.02700
C219        C  0.55666665  0.91120930  0.73689876    -0.00100
C220        C  0.57459874  0.89847382  0.72967129    -0.23000
C221        C  0.58094947  0.90709824  0.70958435    -0.23200
C222        C  0.56676261  0.92490703  0.70501747    -0.00200
H223        H  0.58189957  0.88395914  0.73798456     0.13600
H224        H  0.59502750  0.90155740  0.69964575     0.13600
N225        N  0.45246319  0.02054587  0.72480243    -0.02700
C226        C  0.43825698  0.02651671  0.70785126    -0.00100
C227        C  0.42545464  0.04495884  0.71420936    -0.23000
C228        C  0.43138276  0.05048130  0.73561933    -0.23200
C229        C  0.44781162  0.03542792  0.74188530    -0.00200
H230        H  0.41202275  0.05258157  0.70474237     0.13600
H231        H  0.42468951  0.06435392  0.74554776     0.13600
N232        N  0.55255174  0.01845829  0.72850742    -0.02700
C233        C  0.56249639  0.02150446  0.74892497    -0.00100
C234        C  0.58529252  0.01827424  0.74758064    -0.23000
C235        C  0.58996437  0.01437297  0.72556968    -0.23200
C236        C  0.56991106  0.01562027  0.71397270    -0.00200
H237        H  0.59755510  0.02181084  0.76058042     0.13600
H238        H  0.60658287  0.01405468  0.71838691     0.13600
O239        O  0.52438863  0.94981143  0.74114503    -0.73600
O240        O  0.47735841  0.99506376  0.74259439    -0.73700
O241        O  0.47850943  0.94819351  0.73950210    -0.73700
O242        O  0.52328893  0.99629141  0.74421957    -0.73800
O243        O  0.52424880  0.99921388  0.70721161    -0.73700
O244        O  0.48050174  0.94990114  0.70250554    -0.73700
O245        O  0.47796337  0.99672869  0.70546877    -0.73600
O246        O  0.52618351  0.95294749  0.70418059    -0.73700
Ni247      Ni  0.50072566  0.97235055  0.74315271     1.25400
Ni248      Ni  0.50211146  0.97489027  0.70354938     1.25400
C249        C  0.53329828  0.94409952  0.72242131     0.88600
C250        C  0.46980584  0.00331629  0.72426066     0.88500
C251        C  0.47316973  0.94007253  0.72023743     0.88500
C252        C  0.53207416  0.00484567  0.72652952     0.88700
N253        N  0.44842948  0.21662635  0.93578683    -0.02700
C254        C  0.42962348  0.22959853  0.93318247    -0.00100
C255        C  0.41411275  0.21845504  0.91963862    -0.23000
C256        C  0.42308975  0.19807591  0.91363515    -0.23200
C257        C  0.44400968  0.19720883  0.92343934    -0.00200
H258        H  0.39778857  0.22459410  0.91474390     0.13600
H259        H  0.41577948  0.18575115  0.90201945     0.13600
N260        N  0.55069874  0.21951113  0.93839464    -0.02700
C261        C  0.56852308  0.23393972  0.94284780    -0.00100
C262        C  0.58818356  0.22166563  0.94353211    -0.23000
C263        C  0.58292095  0.19957955  0.93787816    -0.23200
C264        C  0.56012515  0.19874060  0.93393874    -0.00200
H265        H  0.60501834  0.22871508  0.94486405     0.13600
H266        H  0.59490249  0.18641961  0.93390716     0.13600
N267        N  0.45832495  0.23409923  0.03320031    -0.02700
C268        C  0.44739030  0.25377402  0.03874050    -0.00100
C269        C  0.44132150  0.25388339  0.06095137    -0.23000
C270        C  0.44865322  0.23399192  0.06976151    -0.23200
C271        C  0.45921398  0.22222176  0.05278684    -0.00200
H272        H  0.43138919  0.26660070  0.06949197     0.13600
H273        H  0.44677205  0.22867375  0.08694571     0.13600
N274        N  0.54305309  0.23239305  0.03085754    -0.02700
C275        C  0.54912515  0.25363191  0.03856027    -0.00100
C276        C  0.54994270  0.25400247  0.06159568    -0.23000
C277        C  0.54525409  0.23220566  0.06843705    -0.23200
C278        C  0.54196598  0.21887952  0.04942610    -0.00200
H279        H  0.55619940  0.26780054  0.07217226     0.13600
H280        H  0.54670144  0.22614794  0.08541625     0.13600
O281        O  0.47522620  0.20252834  0.96123861    -0.73600
O282        O  0.52232940  0.20927075  0.00529016    -0.73700
O283        O  0.47722699  0.20986182  0.00725297    -0.73700
O284        O  0.52148120  0.20306251  0.96015700    -0.73800
O285        O  0.52136635  0.24066389  0.95493383    -0.73700
O286        O  0.47698690  0.24735987  0.00111469    -0.73700
O287        O  0.52214832  0.24689952  0.00040967    -0.73600
O288        O  0.47486330  0.24014331  0.95578813    -0.73700
Ni289      Ni  0.49891164  0.20482517  0.98342827     1.25400
Ni290      Ni  0.49881983  0.24503484  0.97766986     1.25400
C291        C  0.46697556  0.21999023  0.95141238     0.88600
C292        C  0.52925005  0.22927891  0.01098469     0.88500
C293        C  0.47092977  0.23011574  0.01283470     0.88500
C294        C  0.52990316  0.22106412  0.95094223     0.88700
N295        N  0.24611247  0.42516939  0.91894782    -0.02700
C296        C  0.26182663  0.40894316  0.91422310    -0.00100
C297        C  0.25499988  0.39527642  0.89651024    -0.23000
C298        C  0.23457409  0.40292001  0.88987889    -0.23200
C299        C  0.22935919  0.42111501  0.90366908    -0.00200
H300        H  0.26374040  0.38073864  0.88960796     0.13600
H301        H  0.22480303  0.39643920  0.87585792     0.13600
N302        N  0.25257195  0.51796622  0.91757930    -0.02700
C303        C  0.27249571  0.52387126  0.90788767    -0.00100
C304        C  0.27110311  0.52164038  0.88496877    -0.23000
C305        C  0.24942331  0.51539440  0.88014688    -0.23200
C306        C  0.23794696  0.51418109  0.90020740    -0.00200
H307        H  0.28368077  0.52666432  0.87292065     0.13600
H308        H  0.24205390  0.51493160  0.86358485     0.13600
N309        N  0.24662451  0.42059218  0.01006325    -0.02700
C310        C  0.26044414  0.40251777  0.00702954    -0.00100
C311        C  0.24855081  0.38219161  0.00927030    -0.23000
C312        C  0.22716738  0.38776963  0.01523082    -0.23200
C313        C  0.22652274  0.41134831  0.01643984    -0.00200
H314        H  0.25542503  0.36514623  0.00934669     0.13600
H315        H  0.21448645  0.37589726  0.02115207     0.13600
N316        N  0.25705153  0.51251716  0.02236779    -0.02700
C317        C  0.27798343  0.51706231  0.03078510    -0.00100
C318        C  0.27905812  0.51232411  0.05327203    -0.23000
C319        C  0.25802779  0.50542844  0.05936968    -0.23200
C320        C  0.24456347  0.50638480  0.04049395    -0.00200
H321        H  0.29287713  0.51607146  0.06454615     0.13600
H322        H  0.25243765  0.50293082  0.07637593     0.13600
O323        O  0.23026643  0.45027397  0.98946589    -0.73600
O324        O  0.23326392  0.49901728  0.94665852    -0.73700
O325        O  0.22962953  0.45230120  0.94383382    -0.73700
O326        O  0.23476257  0.49648327  0.99283614    -0.73800
O327        O  0.27184663  0.49416313  0.99072489    -0.73700
O328        O  0.26670209  0.44875410  0.94410847    -0.73700
O329        O  0.27023624  0.49528743  0.94487390    -0.73600
O330        O  0.26741207  0.44811302  0.98959743    -0.73700
Ni331      Ni  0.23065814  0.47479484  0.96822169     1.25400
Ni332      Ni  0.27032883  0.47165353  0.96728086     1.25400
C333        C  0.24824833  0.44089508  0.99644132     0.88600
C334        C  0.25203035  0.50421648  0.93762801     0.88500
C335        C  0.24746131  0.44281735  0.93623206     0.88500
C336        C  0.25433040  0.50142372  0.00071308     0.88700
N337        N  0.93738181  0.44064321  0.71890526    -0.02700
C338        C  0.92974931  0.42980004  0.69999544    -0.00100
C339        C  0.90759716  0.42316305  0.70215984    -0.23000
C340        C  0.90101080  0.42994719  0.72286877    -0.23200
C341        C  0.91923748  0.44073941  0.73283867    -0.00200
H342        H  0.89768577  0.41314902  0.69034138     0.13600
H343        H  0.88437861  0.42788157  0.72979911     0.13600
N344        N  0.93955436  0.52629406  0.72585432    -0.02700
C345        C  0.92522855  0.52698977  0.74366118    -0.00100
C346        C  0.90337012  0.52861089  0.73632258    -0.23000
C347        C  0.90389422  0.52920406  0.71360081    -0.23200
C348        C  0.92617512  0.52884887  0.70735442    -0.00200
H349        H  0.88876036  0.53158731  0.74652646     0.13600
H350        H  0.88979507  0.53332892  0.70299708     0.13600
N351        N  0.03880083  0.43418325  0.72431645    -0.02700
C352        C  0.05530381  0.43093504  0.73991940    -0.00100
C353        C  0.07034822  0.41477087  0.73275023    -0.23000
C354        C  0.06332385  0.40749025  0.71226762    -0.23200
C355        C  0.04396183  0.41914895  0.70740929    -0.00200
H356        H  0.08524708  0.40924044  0.74144486     0.13600
H357        H  0.07073875  0.39392690  0.70244735     0.13600
N358        N  0.03236920  0.53671824  0.73245923    -0.02700
C359        C  0.04129337  0.54552106  0.75192131    -0.00100
C360        C  0.04434758  0.56894554  0.75024363    -0.23000
C361        C  0.03769661  0.57497184  0.72937127    -0.23200
C362        C  0.03042039  0.55519619  0.71877283    -0.00200
H363        H  0.05244290  0.58019201  0.76237220     0.13600
H364        H  0.03791606  0.59208723  0.72258450     0.13600
O365        O  0.96777419  0.50519748  0.74402705    -0.73600
O366        O  0.01250042  0.45764675  0.74337382    -0.73700
O367        O  0.01305080  0.50467500  0.74714114    -0.73700
O368        O  0.96577617  0.45907738  0.74079154    -0.73800
O369        O  0.96843768  0.46086748  0.70377546    -0.73700
O370        O  0.01430273  0.50808189  0.71016909    -0.73700
O371        O  0.01469052  0.46053492  0.70640022    -0.73600
O372        O  0.96879878  0.50697333  0.70707879    -0.73700
Ni373      Ni  0.98987977  0.48138302  0.74510274     1.25400
Ni374      Ni  0.99188828  0.48409104  0.70555818     1.25400
C375        C  0.95998833  0.51303607  0.72568333     0.88600
C376        C  0.02119471  0.45129696  0.72470902     0.88500
C377        C  0.02009529  0.51522874  0.72978351     0.88500
C378        C  0.95825990  0.45360933  0.72129039     0.88700
N379        N  0.75019782  0.43523737  0.92242605    -0.02700
C380        C  0.76444998  0.43511782  0.90456889    -0.00100
C381        C  0.75630189  0.42127677  0.88756489    -0.23000
C382        C  0.73635435  0.41253309  0.89464026    -0.23200
C383        C  0.73276595  0.42111296  0.91589903    -0.00200
H384        H  0.76394275  0.41829589  0.87143854     0.13600
H385        H  0.72589687  0.40027542  0.88562000     0.13600
N386        N  0.76001036  0.53428502  0.94061135    -0.02700
C387        C  0.78037020  0.54533176  0.93977126    -0.00100
C388        C  0.77839860  0.56789361  0.94628910    -0.23000
C389        C  0.75618607  0.57146024  0.95007602    -0.23200
C390        C  0.74498259  0.55097358  0.94591531    -0.00200
H391        H  0.79115112  0.58116555  0.94499236     0.13600
H392        H  0.74861810  0.58801193  0.95259893     0.13600
N393        N  0.75584233  0.42498111  0.02061000    -0.02700
C394        C  0.77318350  0.41732486  0.03354924    -0.00100
C395        C  0.76658248  0.39843145  0.04569466    -0.23000
C396        C  0.74463832  0.39438344  0.04090511    -0.23200
C397        C  0.73832376  0.41053968  0.02552797    -0.00200
H398        H  0.77642468  0.38947619  0.05800113     0.13600
H399        H  0.73450072  0.38032806  0.04712661     0.13600
N400        N  0.76387675  0.52657948  0.02295501    -0.02700
C401        C  0.78275656  0.53207839  0.03511048    -0.00100
C402        C  0.78091474  0.55333157  0.04501821    -0.23000
C403        C  0.76052959  0.56152364  0.03912614    -0.23200
C404        C  0.75026402  0.54523903  0.02550723    -0.00200
H405        H  0.79283020  0.56154170  0.05629265     0.13600
H406        H  0.75400046  0.57808746  0.04377274     0.13600
O407        O  0.77863357  0.49731854  0.99979000    -0.73600
O408        O  0.77222512  0.45458284  0.95007227    -0.73700
O409        O  0.77658049  0.50099707  0.95500741    -0.73700
O410        O  0.77489371  0.45042157  0.99618520    -0.73800
O411        O  0.73782902  0.45321681  0.99857749    -0.73700
O412        O  0.73950525  0.50321351  0.95621249    -0.73700
O413        O  0.73510514  0.45642720  0.95271654    -0.73600
O414        O  0.74156600  0.50070563  0.00111598    -0.73700
Ni415      Ni  0.77684414  0.47550526  0.97519172     1.25400
Ni416      Ni  0.73719028  0.47828384  0.97725978     1.25400
C417        C  0.76118711  0.50723489  0.00763951     0.88600
C418        C  0.75258221  0.44898004  0.94271688     0.88500
C419        C  0.75849841  0.51150620  0.95008526     0.88500
C420        C  0.75618895  0.44361535  0.00454774     0.88700
N421        N  0.97069796  0.42166868  0.21778020    -0.02700
C422        C  0.97457685  0.40378776  0.23188402    -0.00100
C423        C  0.97507790  0.38345690  0.21981866    -0.23000
C424        C  0.96959313  0.38835437  0.19823711    -0.23200
C425        C  0.96606949  0.41157798  0.19749459    -0.00200
H426        H  0.97592858  0.36640671  0.22668495     0.13600
H427        H  0.96542356  0.37590344  0.18532914     0.13600
N428        N  0.97430932  0.52654207  0.21161920    -0.02700
C429        C  0.96391547  0.53162758  0.19192379    -0.00100
C430        C  0.95637512  0.55383937  0.19199434    -0.23000
C431        C  0.96188375  0.56304398  0.21225372    -0.23200
C432        C  0.97273469  0.54629489  0.22406100    -0.00200
H433        H  0.94653936  0.56198600  0.17915121     0.13600
H434        H  0.95826316  0.58023076  0.21795425     0.13600
N435        N  0.06247648  0.42463640  0.22897428    -0.02700
C436        C  0.06683348  0.41167242  0.24744220    -0.00100
C437        C  0.08681182  0.40028410  0.24506846    -0.23000
C438        C  0.09511901  0.40581011  0.22465763    -0.23200
C439        C  0.08013059  0.42059822  0.21504543    -0.00200
H440        H  0.09391845  0.38808258  0.25652135     0.13600
H441        H  0.11069412  0.39990695  0.21756219     0.13600
N442        N  0.05902281  0.52600577  0.22298044    -0.02700
C443        C  0.06580037  0.53671649  0.20388074    -0.00100
C444        C  0.06882520  0.55983692  0.20767811    -0.23000
C445        C  0.06436715  0.56364421  0.22979778    -0.23200
C446        C  0.05869815  0.54275051  0.23916771    -0.00200
H447        H  0.07589750  0.57217936  0.19621213     0.13600
H448        H  0.06683639  0.57973839  0.23862342     0.13600
O449        O  0.99597050  0.49571206  0.19838038    -0.73600
O450        O  0.04037337  0.44878844  0.20633645    -0.73700
O451        O  0.99491264  0.44872025  0.20083870    -0.73700
O452        O  0.04081254  0.49561832  0.20377052    -0.73800
O453        O  0.03774649  0.49685506  0.24068561    -0.73700
O454        O  0.98941029  0.45201315  0.23742119    -0.73700
O455        O  0.03494052  0.45001782  0.24306732    -0.73600
O456        O  0.99262108  0.49961297  0.23520573    -0.73700
Ni457      Ni  0.01812145  0.47202942  0.20107238     1.25400
Ni458      Ni  0.01344758  0.47463444  0.24040723     1.25400
C459        C  0.98792274  0.50638006  0.21535820     0.88600
C460        C  0.04505904  0.44157936  0.22600918     0.88500
C461        C  0.98495662  0.44205377  0.21868746     0.88500
C462        C  0.04604510  0.50485996  0.22263955     0.88700
N463        N  0.93756949  0.23227323  0.43556934    -0.02700
C464        C  0.93126420  0.25135915  0.42404348    -0.00100
C465        C  0.90923878  0.24935567  0.41707292    -0.23000
C466        C  0.90138225  0.22877370  0.42435396    -0.23200
C467        C  0.91873407  0.21862957  0.43568475    -0.00200
H468        H  0.90016723  0.26123826  0.40674262     0.13600
H469        H  0.88452301  0.22203602  0.42211910     0.13600
N470        N  0.93757601  0.22962852  0.52033555    -0.02700
C471        C  0.92733918  0.25021824  0.52300509    -0.00100
C472        C  0.90434426  0.24740177  0.52214499    -0.23000
C473        C  0.90010162  0.22444167  0.52089398    -0.23200
C474        C  0.92058766  0.21369675  0.52035862    -0.00200
H475        H  0.89204019  0.26020635  0.52626159     0.13600
H476        H  0.88382889  0.21637033  0.52294374     0.13600
N477        N  0.03653423  0.21838542  0.42990929    -0.02700
C478        C  0.04062650  0.23260527  0.41219934    -0.00100
C479        C  0.05483201  0.22239214  0.39704930    -0.23000
C480        C  0.05953674  0.20133939  0.40494339    -0.23200
C481        C  0.04884630  0.19924361  0.42524616    -0.00200
H482        H  0.06057166  0.22938385  0.38134719     0.13600
H483        H  0.07128080  0.18948013  0.39762973     0.13600
N484        N  0.03358215  0.21788469  0.52847325    -0.02700
C485        C  0.03764725  0.23422358  0.54448640    -0.00100
C486        C  0.05098531  0.22582526  0.56130890    -0.23000
C487        C  0.05531009  0.20364838  0.55592481    -0.23200
C488        C  0.04463593  0.19899583  0.53584283    -0.00200
H489        H  0.05621837  0.23471701  0.57643551     0.13600
H490        H  0.06618408  0.19236079  0.56509506     0.13600
O491        O  0.96341508  0.20908940  0.45522491    -0.73600
O492        O  0.00948285  0.20193340  0.50056448    -0.73700
O493        O  0.96410478  0.20777581  0.50032288    -0.73700
O494        O  0.00958310  0.20283495  0.45473610    -0.73800
O495        O  0.01489064  0.24059654  0.45544325    -0.73700
O496        O  0.96861649  0.24556651  0.50086496    -0.73700
O497        O  0.01406890  0.23978245  0.50175557    -0.73600
O498        O  0.96909345  0.24680191  0.45563335    -0.73700
Ni499      Ni  0.98661616  0.20409583  0.47757241     1.25400
Ni500      Ni  0.99204382  0.24448606  0.47843458     1.25400
C501        C  0.95776814  0.22921928  0.44888528     0.88600
C502        C  0.01872041  0.21987501  0.50931601     0.88500
C503        C  0.95799467  0.22748637  0.50732677     0.88500
C504        C  0.01981189  0.22076386  0.44746400     0.88700
O505        O  0.01344571  0.33938076  0.30754381    -0.73600
O506        O  0.96792961  0.31134734  0.34334779    -0.73700
O507        O  0.96981551  0.34481947  0.31083625    -0.73700
O508        O  0.01140086  0.30576237  0.33991309    -0.73800
O509        O  0.01592202  0.33080349  0.36778300    -0.73700
O510        O  0.97723639  0.37228411  0.33594358    -0.73700
O511        O  0.97251884  0.33845170  0.36940430    -0.73600
O512        O  0.02065161  0.36472706  0.33471152    -0.73700
Ni513      Ni  0.99045030  0.32444423  0.32451803     1.25400
Ni514      Ni  0.99676176  0.35259566  0.35295062     1.25400
C515        C  0.02294087  0.35797614  0.31437975     0.88600
C516        C  0.96485316  0.31870688  0.36332830     0.88500
C517        C  0.96927749  0.36587288  0.31684872     0.88500
C518        C  0.01768660  0.31035147  0.35996852     0.88700
O519        O  0.89354618  0.10817797  0.51317419    -0.73600
O520        O  0.84971037  0.08547236  0.47080140    -0.73700
O521        O  0.88287703  0.11981432  0.47198187    -0.73700
O522        O  0.86001084  0.07367558  0.51196220    -0.73800
O523        O  0.83593178  0.09882700  0.52588922    -0.73700
O524        O  0.85772413  0.14405109  0.48541946    -0.73700
O525        O  0.82495755  0.10988925  0.48460930    -0.73600
O526        O  0.86853965  0.13263811  0.52662367    -0.73700
Ni527      Ni  0.87247800  0.09584784  0.49157779     1.25400
Ni528      Ni  0.84594766  0.12218970  0.50609783     1.25400
C529        C  0.88886526  0.12623675  0.52449753     0.88600
C530        C  0.82946997  0.09246282  0.47233107     0.88500
C531        C  0.87533367  0.14020959  0.47384717     0.88500
C532        C  0.84224084  0.07816551  0.52314970     0.88700
O533        O  0.09872590  0.10848718  0.46000822    -0.73600
O534        O  0.12766250  0.07177119  0.50471666    -0.73700
O535        O  0.09393677  0.10543466  0.50347514    -0.73700
O536        O  0.13268359  0.07468327  0.46130865    -0.73800
O537        O  0.15798789  0.10255762  0.46621906    -0.73700
O538        O  0.12034648  0.13238339  0.50824147    -0.73700
O539        O  0.15313392  0.09955228  0.50959438    -0.73600
O540        O  0.12505960  0.13534385  0.46492091    -0.73700
Ni541      Ni  0.11224429  0.08904174  0.48217613     1.25400
Ni542      Ni  0.13998756  0.11834636  0.48741217     1.25400
C543        C  0.10567684  0.12924493  0.45762069     0.88600
C544        C  0.14694669  0.07863719  0.51186404     0.88500
C545        C  0.09996688  0.12558711  0.51006735     0.88500
C546        C  0.15293171  0.08228124  0.45951194     0.88700
O547        O  0.88493140  0.48800099  0.13646354    -0.73600
O548        O  0.84579597  0.44510838  0.10738170    -0.73700
O549        O  0.88100915  0.44338612  0.13774730    -0.73700
O550        O  0.84972375  0.48984928  0.10634865    -0.73800
O551        O  0.87323011  0.48711041  0.07767984    -0.73700
O552        O  0.90550780  0.44071710  0.10997787    -0.73700
O553        O  0.86938633  0.44225916  0.07886807    -0.73600
O554        O  0.90912312  0.48560147  0.10827333    -0.73700
Ni555      Ni  0.86455795  0.46665559  0.12291748     1.25400
Ni556      Ni  0.89023483  0.46373745  0.09264432     1.25400
C557        C  0.90445938  0.49166563  0.12835606     0.88600
C558        C  0.84963468  0.43965278  0.08700306     0.88500
C559        C  0.90006776  0.43693260  0.13042237     0.88500
C560        C  0.85462576  0.49399498  0.08593443     0.88700
O561        O  0.14408398  0.45288447  0.13716900    -0.73600
O562        O  0.16970658  0.49945733  0.10104940    -0.73700
O563        O  0.14039811  0.49770027  0.13624391    -0.73700
O564        O  0.17341302  0.45442544  0.10161734    -0.73800
O565        O  0.14411888  0.44941913  0.07891116    -0.73700
O566        O  0.11193390  0.49557368  0.11211846    -0.73700
O567        O  0.14224358  0.49444611  0.07602522    -0.73600
O568        O  0.11395263  0.45055115  0.11516667    -0.73700
Ni569      Ni  0.15785542  0.47620346  0.11979869     1.25400
Ni570      Ni  0.12697462  0.47235475  0.09461903     1.25400
C571        C  0.12357415  0.44696066  0.13401566     0.88600
C572        C  0.16171590  0.50237995  0.08146479     0.88500
C573        C  0.12005471  0.50213341  0.13107870     0.88500
C574        C  0.16494019  0.44631735  0.08343964     0.88700
O575        O  0.60584939  0.33834281  0.99443797    -0.73600
O576        O  0.63917611  0.37283057  0.95046693    -0.73700
O577        O  0.60314229  0.34018574  0.95047470    -0.73700
O578        O  0.64116497  0.37052706  0.99423116    -0.73800
O579        O  0.66505347  0.34167010  0.99140196    -0.73700
O580        O  0.62827835  0.31252683  0.94697051    -0.73700
O581        O  0.66316119  0.34415756  0.94774823    -0.73600
O582        O  0.63022639  0.31004821  0.99097044    -0.73700
Ni583      Ni  0.62135786  0.35651638  0.97241825     1.39800
Ni584      Ni  0.64745793  0.32613775  0.96916741     1.25400
C585        C  0.61154043  0.31759932  0.99819879     0.88600
C586        C  0.65842166  0.36519942  0.94457942     0.88500
C587        C  0.60851712  0.32006555  0.94368573     0.88500
C588        C  0.66065467  0.36218518  0.99752407     0.88700
O589        O  0.90085649  0.51994091  0.84549529    -0.73600
O590        O  0.85678715  0.47612728  0.86486978    -0.73700
O591        O  0.88956859  0.47814329  0.83168899    -0.73700
O592        O  0.86701123  0.51797745  0.87845902    -0.73800
O593        O  0.84427226  0.53363234  0.85359125    -0.73700
O594        O  0.86348195  0.49177274  0.80894435    -0.73700
O595        O  0.83159655  0.49182998  0.84236550    -0.73600
O596        O  0.87652629  0.53361481  0.82078038    -0.73700
Ni597      Ni  0.87953407  0.49760935  0.85604132     1.25400
Ni598      Ni  0.85315642  0.51322425  0.83059410     1.25400
C599        C  0.89668655  0.53143012  0.82783819     0.88600
C600        C  0.83640016  0.47866061  0.85870262     0.88500
C601        C  0.88106790  0.47989492  0.81200444     0.88500
C602        C  0.84978602  0.53016594  0.87390489     0.88700
O603        O  0.00836605  0.36693711  0.61744331    -0.73600
O604        O  0.96222026  0.33875920  0.58114922    -0.73700
O605        O  0.96487672  0.37272964  0.61437928    -0.73700
O606        O  0.00580991  0.33249652  0.58419485    -0.73800
O607        O  0.00062186  0.30698061  0.61118980    -0.73700
O608        O  0.95865212  0.34568160  0.63966404    -0.73700
O609        O  0.95710753  0.31228435  0.60721518    -0.73600
O610        O  0.00211401  0.34103627  0.64381006    -0.73700
Ni611      Ni  0.98556019  0.35369864  0.59829657     1.25400
Ni612      Ni  0.97948475  0.32557627  0.62634580     1.25400
C613        C  0.01035432  0.36039411  0.63776084     0.88600
C614        C  0.95396977  0.31944814  0.58728308     0.88500
C615        C  0.95742449  0.36650382  0.63351173     0.88500
C616        C  0.00748510  0.31202788  0.59159070     0.88700
O617        O  0.10208462  0.46520215  0.83249109    -0.73600
O618        O  0.13222064  0.50819002  0.87216010    -0.73700
O619        O  0.09757268  0.50943444  0.83910553    -0.73700
O620        O  0.13659713  0.46398486  0.86484667    -0.73800
O621        O  0.16126369  0.47110606  0.83791626    -0.73700
O622        O  0.12398844  0.51713620  0.81412268    -0.73700
O623        O  0.15747336  0.51533854  0.84569161    -0.73600
O624        O  0.12739258  0.47311131  0.80633421    -0.73700
Ni625      Ni  0.11613988  0.48649559  0.85319333     1.25400
Ni626      Ni  0.14336275  0.49439244  0.82517338     1.25400
C627        C  0.10838354  0.46456282  0.81201785     0.88600
C628        C  0.15133794  0.51639882  0.86613393     0.88500
C629        C  0.10362045  0.51839692  0.82045517     0.88500
C630        C  0.15642536  0.46211884  0.85672993     0.88700
O631        O  0.32976283  0.34082891  0.96157450    -0.73600
O632        O  0.36843735  0.31718210  0.00600291    -0.73700
O633        O  0.33781134  0.35112862  0.00381906    -0.73700
O634        O  0.36131790  0.30633940  0.96394506    -0.73800
O635        O  0.38814819  0.33065168  0.95329226    -0.73700
O636        O  0.36435934  0.37612823  0.99362413    -0.73700
O637        O  0.39608093  0.34050687  0.99545338    -0.73600
O638        O  0.35600668  0.36598853  0.95130592    -0.73700
Ni639      Ni  0.34842742  0.32808161  0.98409178     1.25400
Ni640      Ni  0.37715602  0.35431235  0.97301737     1.25400
C641        C  0.33543750  0.35906135  0.95119354     0.88600
C642        C  0.38925680  0.32243141  0.00564242     0.88500
C643        C  0.34580115  0.37153190  0.00351426     0.88500
C644        C  0.38037157  0.31011556  0.95472452     0.88700
O645        O  0.48772986  0.10411273  0.81113593    -0.73600
O646        O  0.52998029  0.13845639  0.84661812    -0.73700
O647        O  0.53164190  0.10550561  0.81290368    -0.73700
O648        O  0.48606152  0.13714893  0.84491085    -0.73800
O649        O  0.48591642  0.11036547  0.87109851    -0.73700
O650        O  0.53042355  0.07745123  0.83777473    -0.73700
O651        O  0.53002953  0.11073238  0.87190079    -0.73600
O652        O  0.48619066  0.07685670  0.83695533    -0.73700
Ni653      Ni  0.50884243  0.12223945  0.82801046     1.25400
Ni654      Ni  0.50810926  0.09282740  0.85536483     1.25400
C655        C  0.48210916  0.08383111  0.81710069     0.88600
C656        C  0.53489087  0.13134456  0.86621309     0.88500
C657        C  0.53638899  0.08504832  0.81858857     0.88500
C658        C  0.48106384  0.13062078  0.86468218     0.88700
O659        O  0.48681108  0.08711991  0.12142271    -0.73600
O660        O  0.52820395  0.11220360  0.07819419    -0.73700
O661        O  0.52786890  0.07607035  0.10954861    -0.73700
O662        O  0.48731404  0.12275306  0.09020169    -0.73800
O663        O  0.50135104  0.14612469  0.11640531    -0.73700
O664        O  0.54240566  0.10028006  0.13487719    -0.73700
O665        O  0.54237007  0.13555275  0.10442389    -0.73600
O666        O  0.50125519  0.11075661  0.14719762    -0.73700
Ni667      Ni  0.50711541  0.09860609  0.09888005     1.25400
Ni668      Ni  0.52231270  0.12396022  0.12662505     1.25400
C669        C  0.48877380  0.09345832  0.14195909     0.88600
C670        C  0.53968206  0.13014782  0.08379436     0.88500
C671        C  0.53966675  0.07992063  0.12720992     0.88500
C672        C  0.48982805  0.14294903  0.09848968     0.88700
O673        O  0.36200133  0.97878663  0.64858701    -0.73600
O674        O  0.33018991  0.93442333  0.61267290    -0.73700
O675        O  0.36613802  0.93454213  0.64263495    -0.73700
O676        O  0.32615537  0.97873132  0.61897474    -0.73800
O677        O  0.34844614  0.98447454  0.58981914    -0.73700
O678        O  0.39038280  0.94195779  0.61544524    -0.73700
O679        O  0.35408693  0.94017440  0.58478718    -0.73600
O680        O  0.38495998  0.98635402  0.62029070    -0.73700
Ni681      Ni  0.34532653  0.95639570  0.63165651     1.25400
Ni682      Ni  0.37036448  0.96348598  0.60154111     1.25400
C683        C  0.38021516  0.98770281  0.64117322     0.88600
C684        C  0.33533774  0.93212860  0.59198135     0.88500
C685        C  0.38604144  0.93353447  0.63476074     0.88500
C686        C  0.32908750  0.98588516  0.59902091     0.88700
O687        O  0.52044914  0.83930117  0.80832460    -0.73600
O688        O  0.47697159  0.81047049  0.84493564    -0.73700
O689        O  0.47637017  0.84131062  0.81073266    -0.73700
O690        O  0.52097119  0.80834219  0.84301120    -0.73800
O691        O  0.52516551  0.83730027  0.86706834    -0.73700
O692        O  0.47876009  0.86969391  0.83580800    -0.73700
O693        O  0.48128610  0.83757306  0.87096337    -0.73600
O694        O  0.52265834  0.86902246  0.83174164    -0.73700
Ni695      Ni  0.49861521  0.82390555  0.82593265     1.25400
Ni696      Ni  0.50204183  0.85451629  0.85233702     1.25400
C697        C  0.52605430  0.86013199  0.81234384     0.88600
C698        C  0.47515245  0.81719563  0.86518525     0.88500
C699        C  0.47214555  0.86188302  0.81672627     0.88500
C700        C  0.52853590  0.81630582  0.86164689     0.88700
O701        O  0.36155996  0.57817428  0.94772604    -0.73600
O702        O  0.39689464  0.60952094  0.99307473    -0.73700
O703        O  0.36280957  0.57575175  0.99192773    -0.73700
O704        O  0.39568811  0.61198013  0.94933350    -0.73800
O705        O  0.36900163  0.63819837  0.95124362    -0.73700
O706        O  0.33757467  0.60330603  0.99480657    -0.73700
O707        O  0.37113429  0.63661782  0.99498653    -0.73600
O708        O  0.33547633  0.60489580  0.95091628    -0.73700
Ni709      Ni  0.38014542  0.59279175  0.97040673     1.25400
Ni710      Ni  0.35239751  0.62164999  0.97304625     1.25400
C711        C  0.34166075  0.58525384  0.94371886     0.88600
C712        C  0.39099170  0.62966718  0.99924214     0.88500
C713        C  0.34360074  0.58275425  0.99852600     0.88500
C714        C  0.38908272  0.63253094  0.94641762     0.88700
O715        O  0.53631320  0.87510613  0.11387812    -0.73600
O716        O  0.49592477  0.82989825  0.08736849    -0.73700
O717        O  0.49372995  0.86432519  0.12030329    -0.73700
O718        O  0.53827764  0.84109476  0.08024183    -0.73800
O719        O  0.54796453  0.81516201  0.10549884    -0.73700
O720        O  0.50541202  0.84037884  0.14652268    -0.73700
O721        O  0.50546548  0.80590051  0.11436219    -0.73600
O722        O  0.54784559  0.84891997  0.13789823    -0.73700
Ni723      Ni  0.51571828  0.85357833  0.09948811     1.25400
Ni724      Ni  0.52700536  0.82672163  0.12693697     1.25400
C725        C  0.54672556  0.86980486  0.13195040     0.88600
C726        C  0.49614372  0.80959153  0.09546244     0.88500
C727        C  0.49421439  0.85797873  0.14073881     0.88500
C728        C  0.54811077  0.82247250  0.08536225     0.88700
O729        O  0.38525798  0.99255639  0.33426652    -0.73600
O730        O  0.35572078  0.94569487  0.36863033    -0.73700
O731        O  0.38877159  0.94776984  0.33510938    -0.73700
O732        O  0.35183555  0.99028113  0.36805385    -0.73800
O733        O  0.32592155  0.98712655  0.34140778    -0.73700
O734        O  0.36190811  0.94454697  0.30926654    -0.73700
O735        O  0.32931423  0.94255959  0.34241955    -0.73600
O736        O  0.35852601  0.98913248  0.30844153    -0.73700
Ni737      Ni  0.37140372  0.96922330  0.35248242     1.25400
Ni738      Ni  0.34303189  0.96571297  0.32449623     1.25400
C739        C  0.37816466  0.99604039  0.31429852     0.88600
C740        C  0.33595463  0.93930950  0.36250803     0.88500
C741        C  0.38228419  0.94177498  0.31539564     0.88500
C742        C  0.33150587  0.99288414  0.36138909     0.88700
O743        O  0.14692239  0.84435417  0.51180848    -0.73600
O744        O  0.12252380  0.80376289  0.46704207    -0.73700
O745        O  0.15800240  0.83434287  0.47025978    -0.73700
O746        O  0.11171679  0.81360106  0.50893343    -0.73800
O747        O  0.08878990  0.84011980  0.49564959    -0.73700
O748        O  0.13706916  0.86318500  0.45865635    -0.73700
O749        O  0.10140421  0.83181724  0.45404945    -0.73600
O750        O  0.12472308  0.87218331  0.50000068    -0.73700
Ni751      Ni  0.13549996  0.82307538  0.48992021     1.25400
Ni752      Ni  0.11210554  0.85286408  0.47670309     1.25400
C753        C  0.14175087  0.86555458  0.51128906     0.88600
C754        C  0.10663042  0.81059936  0.45434698     0.88500
C755        C  0.15623435  0.85359267  0.46039370     0.88500
C756        C  0.09206192  0.82166971  0.50669322     0.88700
O757        O  0.99112700  0.61511200  0.36031718    -0.73600
O758        O  0.03286537  0.56954775  0.34017978    -0.73700
O759        O  0.03019257  0.60139942  0.37564781    -0.73700
O760        O  0.99378028  0.58336207  0.32497013    -0.73800
O761        O  0.01137145  0.60963580  0.30451472    -0.73700
O762        O  0.04812924  0.62691680  0.35449499    -0.73700
O763        O  0.05049843  0.59590299  0.31976441    -0.73600
O764        O  0.00888468  0.64109335  0.33973614    -0.73700
Ni765      Ni  0.01140469  0.59137935  0.35106544     1.25400
Ni766      Ni  0.03028429  0.61929447  0.32891945     1.25400
C767        C  0.99461444  0.63610912  0.35499593     0.88600
C768        C  0.04675228  0.57492126  0.32467474     0.88500
C769        C  0.04307154  0.61904760  0.37373509     0.88500
C770        C  0.99854060  0.59191993  0.30585805     0.88700
O771        O  0.85398331  0.86533562  0.50428133    -0.73600
O772        O  0.88673018  0.82832866  0.46164120    -0.73700
O773        O  0.85357192  0.86230337  0.46046372    -0.73700
O774        O  0.88744596  0.83148175  0.50569245    -0.73800
O775        O  0.86085586  0.80444990  0.50727787    -0.73700
O776        O  0.82730412  0.83499960  0.46244262    -0.73700
O777        O  0.85985971  0.80166877  0.46346481    -0.73600
O778        O  0.82804317  0.83768835  0.50613881    -0.73700
Ni779      Ni  0.87146085  0.84785294  0.48299072     1.25400
Ni780      Ni  0.84314554  0.81878335  0.48492450     1.25400
C781        C  0.83410412  0.85856136  0.50952260     0.88600
C782        C  0.87957779  0.80785913  0.45741860     0.88500
C783        C  0.83353294  0.85511230  0.45649887     0.88500
C784        C  0.88092138  0.81136319  0.51140750     0.88700
O785        O  0.65729509  0.94240660  0.34363228    -0.73600
O786        O  0.62634154  0.98546458  0.30780915    -0.73700
O787        O  0.66021571  0.98722604  0.33958464    -0.73700
O788        O  0.62365435  0.94057656  0.31248222    -0.73800
O789        O  0.59808488  0.94511981  0.33917844    -0.73700
O790        O  0.63532760  0.99172118  0.36678503    -0.73700
O791        O  0.60087175  0.99007001  0.33445863    -0.73600
O792        O  0.63307145  0.94706773  0.37142140    -0.73700
Ni793      Ni  0.64269338  0.96377870  0.32497996     1.25400
Ni794      Ni  0.61582200  0.96857828  0.35395489     1.25400
C795        C  0.65232001  0.94064242  0.36430435     0.88600
C796        C  0.60745320  0.99327518  0.31424560     0.88500
C797        C  0.65511643  0.99492480  0.35902849     0.88500
C798        C  0.60377878  0.93749113  0.31986889     0.88700
O799        O  0.94803292  0.63387444  0.59746783    -0.73600
O800        O  0.99037890  0.61237188  0.64014366    -0.73700
O801        O  0.99131278  0.64143287  0.60373750    -0.73700
O802        O  0.94725022  0.60525744  0.63373284    -0.73800
O803        O  0.95479514  0.57542893  0.61179202    -0.73700
O804        O  0.99973792  0.61192082  0.58163232    -0.73700
O805        O  0.99807608  0.58241194  0.61833230    -0.73600
O806        O  0.95633358  0.60489002  0.57463202    -0.73700
Ni807      Ni  0.96900914  0.62424337  0.61950357     1.25400
Ni808      Ni  0.97745962  0.59256558  0.59572631     1.25400
C809        C  0.94742404  0.62447642  0.57807042     0.88600
C810        C  0.99885017  0.59249808  0.63743471     0.88500
C811        C  0.00126515  0.63333949  0.58652632     0.88500
C812        C  0.94579023  0.58378784  0.62950574     0.88700
O813        O  0.63645850  0.97275795  0.58038400    -0.73600
O814        O  0.59763771  0.01589563  0.60934855    -0.73700
O815        O  0.63054151  0.01706459  0.57498686    -0.73700
O816        O  0.60458905  0.97181864  0.61435701    -0.73800
O817        O  0.63177905  0.97953151  0.63897490    -0.73700
O818        O  0.65603538  0.02557661  0.60105182    -0.73700
O819        O  0.62429657  0.02360642  0.63457852    -0.73600
O820        O  0.66328009  0.98156215  0.60517128    -0.73700
Ni821      Ni  0.61629333  0.99423620  0.59379128     1.25400
Ni822      Ni  0.64473691  0.00286727  0.62078690     1.25400
C823        C  0.65690147  0.97181727  0.58690781     0.88600
C824        C  0.60369232  0.02397180  0.62850106     0.88500
C825        C  0.64939975  0.02638053  0.58073536     0.88500
C826        C  0.61293908  0.96998211  0.63406635     0.88700
O827        O  0.65075995  0.58290907  0.99522692    -0.73600
O828        O  0.60717801  0.61269404  0.95705099    -0.73700
O829        O  0.64189146  0.58052324  0.95207533    -0.73700
O830        O  0.61581434  0.61477764  0.00043612    -0.73800
O831        O  0.63919531  0.64377581  0.99346865    -0.73700
O832        O  0.66660198  0.60884563  0.94664922    -0.73700
O833        O  0.63240690  0.64010819  0.94983136    -0.73600
O834        O  0.67377201  0.61258066  0.99008693    -0.73700
Ni835      Ni  0.62795887  0.59668252  0.97639482     1.25400
Ni836      Ni  0.65379004  0.62729425  0.96983427     1.25400
C837        C  0.67047694  0.59201845  0.99673402     0.88600
C838        C  0.61229706  0.63232472  0.94877101     0.88500
C839        C  0.66043865  0.58792058  0.94387125     0.88500
C840        C  0.62157657  0.63587405  0.00310036     0.88700
C841        C  0.02540656  0.25557400  0.54860606    -0.04700
C842        C  0.00725954  0.25381871  0.56319112    -0.32100
C843        C  0.00195660  0.27191253  0.57749795     0.37200
C844        C  0.01389180  0.29297201  0.57642320    -0.05000
C845        C  0.03030427  0.29566875  0.55986397    -0.32000
C846        C  0.03654107  0.27688718  0.54644781     0.37100
H847        H  0.99884540  0.23743325  0.56541709     0.17400
O848        O  0.98523656  0.26860359  0.59283738    -0.59500
H849        H  0.03918040  0.31185577  0.55824625     0.17400
O850        O  0.05440371  0.27907878  0.53224595    -0.59600
H851        H  0.06779747  0.27568497  0.54144084     0.44400
H852        H  0.99223619  0.26002693  0.60521227     0.44400
C853        C  0.05225959  0.17907018  0.52275560    -0.04700
C854        C  0.04817731  0.15695749  0.53128441    -0.32100
C855        C  0.06318254  0.13895432  0.52723712     0.37200
C856        C  0.08300824  0.14322785  0.51526289    -0.05000
C857        C  0.08631402  0.16501302  0.50587681    -0.32000
C858        C  0.07096822  0.18256948  0.50903896     0.37100
H859        H  0.03429795  0.15415531  0.54259942     0.17400
O860        O  0.05904231  0.11783357  0.53624032    -0.59500
H861        H  0.10124947  0.16868000  0.49629247     0.17400
O862        O  0.07565837  0.20387014  0.50060702    -0.59600
H863        H  0.08600139  0.21127442  0.51158408     0.44400
H864        H  0.06599179  0.11844339  0.55132070     0.44400
C865        C  0.02334780  0.29082255  0.37500572    -0.04700
C866        C  0.03382491  0.29417183  0.39598668    -0.32100
C867        C  0.03753534  0.27548687  0.41040176     0.37200
C868        C  0.02890493  0.25350097  0.40495413    -0.05000
C869        C  0.01671604  0.25085429  0.38504105    -0.32000
C870        C  0.01527731  0.26854494  0.36963086     0.37100
H871        H  0.04004990  0.31101784  0.40075443     0.17400
O872        O  0.05063175  0.27860404  0.42908923    -0.59500
H873        H  0.01085937  0.23393852  0.37994589     0.17400
O874        O  0.00604723  0.26353358  0.34911316    -0.59600
H875        H  0.01867003  0.25799940  0.33987610     0.44400
H876        H  0.06621092  0.27600373  0.42401946     0.44400
C877        C  0.05886908  0.18292583  0.44109714    -0.04700
C878        C  0.08110719  0.18804216  0.44723238    -0.32100
C879        C  0.09674339  0.17077522  0.45050498     0.37200
C880        C  0.09003237  0.14743495  0.44988897    -0.05000
C881        C  0.06718693  0.14234223  0.44579290    -0.32000
C882        C  0.05185981  0.15980384  0.44086530     0.37100
H883        H  0.08712027  0.20562657  0.44670168     0.17400
O884        O  0.11865273  0.17714689  0.45427178    -0.59500
H885        H  0.06122168  0.12475979  0.44596862     0.17400
O886        O  0.03027565  0.15406070  0.43493490    -0.59600
H887        H  0.03085045  0.15049474  0.41872281     0.44400
H888        H  0.12557266  0.17780262  0.43923883     0.44400
C889        C  0.93584622  0.26799370  0.53864837    -0.04700
C890        C  0.93907267  0.29064076  0.53168600    -0.32100
C891        C  0.94343223  0.30821908  0.54738251     0.37200
C892        C  0.94396461  0.30330593  0.57051345    -0.05000
C893        C  0.93924294  0.28076953  0.57725482    -0.32000
C894        C  0.93582255  0.26322673  0.56163767     0.37100
H895        H  0.93812244  0.29469141  0.51408000     0.17400
O896        O  0.94767654  0.32992432  0.53983172    -0.59500
H897        H  0.93931394  0.27632145  0.59478825     0.17400
O898        O  0.93153336  0.24147259  0.56907840    -0.59600
H899        H  0.94640868  0.23417781  0.57005980     0.44400
H900        H  0.93308142  0.33780211  0.54063346     0.44400
C901        C  0.92209910  0.18911259  0.52678325    -0.04700
C902        C  0.92871758  0.17254828  0.51114438    -0.32100
C903        C  0.92203201  0.14955899  0.51338756     0.37200
C904        C  0.90673308  0.14323493  0.53030331    -0.05000
C905        C  0.90287060  0.15893604  0.54766481    -0.32000
C906        C  0.91073487  0.18163476  0.54618389     0.37100
H907        H  0.93672400  0.17755793  0.49575415     0.17400
O908        O  0.92723445  0.13446601  0.49659686    -0.59500
H909        H  0.89151804  0.15441656  0.56106180     0.17400
O910        O  0.90520097  0.19702695  0.56267313    -0.59600
H911        H  0.88876409  0.19907302  0.56140811     0.44400
H912        H  0.94044791  0.12610833  0.50219660     0.44400
C913        C  0.94561619  0.26885992  0.41319766    -0.04700
C914        C  0.94090548  0.29221837  0.41675181    -0.32100
C915        C  0.94674134  0.30890640  0.40079430     0.37200
C916        C  0.95626421  0.30219524  0.38028769    -0.05000
C917        C  0.96086817  0.27885296  0.37695916    -0.32000
C918        C  0.95638023  0.26250870  0.39335446     0.37100
H919        H  0.93151343  0.29733497  0.43138277     0.17400
O920        O  0.94154109  0.33136467  0.40470144    -0.59500
H921        H  0.96798270  0.27308117  0.36138730     0.17400
O922        O  0.96093912  0.23994526  0.38904322    -0.59600
H923        H  0.94799103  0.23404420  0.38018348     0.44400
H924        H  0.95377682  0.33743364  0.41443548     0.44400
C925        C  0.91399794  0.19788573  0.44895395    -0.04700
C926        C  0.89944002  0.20040219  0.46705802    -0.32100
C927        C  0.88663653  0.18192740  0.47487629     0.37200
C928        C  0.88835130  0.16005060  0.46477178    -0.05000
C929        C  0.90413559  0.15716281  0.44757251    -0.32000
C930        C  0.91665433  0.17594724  0.43947420     0.37100
H931        H  0.89668929  0.21727921  0.47407836     0.17400
O932        O  0.87269783  0.18545527  0.49270905    -0.59500
H933        H  0.90620688  0.14049680  0.43985838     0.17400
O934        O  0.93001384  0.17305855  0.42111529    -0.59600
H935        H  0.94540040  0.17130532  0.42720385     0.44400
H936        H  0.85916944  0.19268244  0.48637681     0.44400
C937        C  0.05436617  0.55723058  0.30856365    -0.04700
C938        C  0.03764073  0.54318664  0.29884364    -0.32100
C939        C  0.03940905  0.53534995  0.27662680     0.37200
C940        C  0.05890673  0.54032201  0.26415992    -0.05000
C941        C  0.07724888  0.55054866  0.27563893    -0.32000
C942        C  0.07485079  0.55969094  0.29728686     0.37100
H943        H  0.02158239  0.54131079  0.30708583     0.17400
O944        O  0.02065443  0.52632803  0.26649261    -0.59500
H945        H  0.09259424  0.55430890  0.26667134     0.17400
O946        O  0.09188152  0.57274034  0.30646155    -0.59600
H947        H  0.09137234  0.58761440  0.29862425     0.44400
H948        H  0.01632049  0.51270384  0.27536883     0.44400
C949        C  0.07746127  0.52548322  0.18492263    -0.04700
C950        C  0.07086223  0.52918868  0.16263182    -0.32100
C951        C  0.08443960  0.52205838  0.14463373     0.37200
C952        C  0.10542575  0.51199291  0.14886273    -0.05000
C953        C  0.11185558  0.50871162  0.17126852    -0.32000
C954        C  0.09806533  0.51501426  0.18902150     0.37100
H955        H  0.05530817  0.53786839  0.15920630     0.17400
O956        O  0.07714862  0.52521646  0.12313736    -0.59500
H957        H  0.12769668  0.50088145  0.17523353     0.17400
O958        O  0.10534452  0.51165185  0.21050170    -0.59600
H959        H  0.11358927  0.52590841  0.21470812     0.44400
H960        H  0.08104040  0.54134921  0.11966122     0.44400
C961        C  0.05112928  0.40359068  0.26481635    -0.04700
C962        C  0.05778424  0.40563429  0.28735290    -0.32100
C963        C  0.04909596  0.39087172  0.30373111     0.37200
C964        C  0.03390185  0.37319007  0.29763556    -0.05000
C965        C  0.02675547  0.37170081  0.27517313    -0.32000
C966        C  0.03519895  0.38664707  0.25894418     0.37100
H967        H  0.07088979  0.41780105  0.29200903     0.17400
O968        O  0.05666833  0.39297891  0.32532164    -0.59500
H969        H  0.01442864  0.35889456  0.27007029     0.17400
O970        O  0.02863375  0.38380459  0.23709082    -0.59600
H971        H  0.03881916  0.37215429  0.23079558     0.44400
H972        H  0.04779855  0.40552560  0.33198542     0.44400
C973        C  0.11039040  0.44029574  0.15404994    -0.04700
C974        C  0.11750412  0.44968300  0.17464803    -0.32100
C975        C  0.10551139  0.44600599  0.19422759     0.37200
C976        C  0.08617429  0.43207738  0.19395616    -0.05000
C977        C  0.07830943  0.42325725  0.17335425    -0.32000
C978        C  0.09004324  0.42769813  0.15335151     0.37100
H979        H  0.13263448  0.46007887  0.17574969     0.17400
O980        O  0.11356200  0.45504270  0.21398685    -0.59500
H981        H  0.06382122  0.41188426  0.17296120     0.17400
O982        O  0.08194871  0.41898621  0.13352353    -0.59600
H983        H  0.08820724  0.40338915  0.13233948     0.44400
H984        H  0.12645284  0.44537683  0.21815678     0.44400
C985        C  0.99180615  0.57944829  0.28494462    -0.04700
C986        C  0.97287402  0.56483880  0.28437431    -0.32100
C987        C  0.96765891  0.55167079  0.26516985     0.37200
C988        C  0.98188073  0.55217757  0.24638320    -0.05000
C989        C  0.00095297  0.56642120  0.24713649    -0.32000
C990        C  0.00601902  0.57984366  0.26605804     0.37100
H991        H  0.96175279  0.56410037  0.29861939     0.17400
O992        O  0.94762972  0.53990703  0.26419723    -0.59500
H993        H  0.01155285  0.56785184  0.23253274     0.17400
O994        O  0.02550565  0.59257512  0.26618682    -0.59600
H995        H  0.02196537  0.60668145  0.25786347     0.44400
H996        H  0.95137789  0.52382498  0.26756927     0.44400
C997        C  0.95464777  0.51534395  0.17522773    -0.04700
C998        C  0.95687780  0.52067410  0.15243433    -0.32100
C999        C  0.94101370  0.51281604  0.13666415     0.37200
C1000       C  0.92236181  0.49986663  0.14375807    -0.05000
C1001       C  0.92136071  0.49288831  0.16620243    -0.32000
C1002       C  0.93737099  0.50036534  0.18182172     0.37100
H1003       H  0.96993342  0.53249772  0.14717767     0.17400
O1004       O  0.94325540  0.51894183  0.11471500    -0.59500
H1005       H  0.90772856  0.48198729  0.17186177     0.17400
O1006       O  0.93478346  0.49465101  0.20386489    -0.59600
H1007       H  0.92449031  0.50621094  0.21015148     0.44400
H1008       H  0.93515158  0.53357629  0.11335119     0.44400
C1009       C  0.96409939  0.38299101  0.29931053    -0.04700
C1010       C  0.98042248  0.39999549  0.29494939    -0.32100
C1011       C  0.98280386  0.40944864  0.27345535     0.37200
C1012       C  0.96808767  0.40264472  0.25608267    -0.05000
C1013       C  0.94960884  0.38848069  0.26161782    -0.32000
C1014       C  0.94793034  0.37817144  0.28269688     0.37100
H1015       H  0.99331460  0.40374289  0.30730291     0.17400
O1016       O  0.00128348  0.42276008  0.26901480    -0.59500
H1017       H  0.93785476  0.38315452  0.24866745     0.17400
O1018       O  0.93146637  0.36201890  0.28631277    -0.59600
H1019       H  0.93640388  0.34807597  0.27823249     0.44400
H1020       H  0.99966276  0.43675624  0.27835133     0.44400
C1021       C  0.95039679  0.42069286  0.18035775    -0.04700
C1022       C  0.95533642  0.41838385  0.15747727    -0.32100
C1023       C  0.93903264  0.42253089  0.14091905     0.37200
C1024       C  0.91698685  0.42856089  0.14702232    -0.05000
C1025       C  0.91215571  0.43051208  0.17003872    -0.32000
C1026       C  0.92852302  0.42676340  0.18647241     0.37100
H1027       H  0.97188466  0.41300953  0.15243250     0.17400
O1028       O  0.94502270  0.42094390  0.11887562    -0.59500
H1029       H  0.89562715  0.43548838  0.17550232     0.17400
O1030       O  0.92270249  0.42835611  0.20857600    -0.59600
H1031       H  0.91736091  0.41278308  0.21266196     0.44400
H1032       H  0.94150528  0.40490279  0.11443325     0.44400
C1033       C  0.72950861  0.55177372  0.01321393    -0.04700
C1034       C  0.73102120  0.57199876  0.00085821    -0.32100
C1035       C  0.71222503  0.58519290  0.99621888     0.37200
C1036       C  0.69058554  0.57818567  0.00333239    -0.05000
C1037       C  0.68869434  0.55696128  0.01438282    -0.32000
C1038       C  0.70798554  0.54410518  0.01976860     0.37100
H1039       H  0.74738037  0.57870023  0.99628276     0.17400
O1040       O  0.71541520  0.60500358  0.98444890    -0.59500
H1041       H  0.67235534  0.55064550  0.01942773     0.17400
O1042       O  0.70566855  0.52448719  0.03198591    -0.59600
H1043       H  0.70804845  0.52930273  0.04774959     0.44400
H1044       H  0.71979090  0.61673784  0.99578782     0.44400
C1045       C  0.83670760  0.50342376  0.07126718    -0.04700
C1046       C  0.81427361  0.49993918  0.07775816    -0.32100
C1047       C  0.79637219  0.50594532  0.06397081     0.37200
C1048       C  0.80036137  0.51668215  0.04345540    -0.05000
C1049       C  0.82273412  0.52010617  0.03664120    -0.32000
C1050       C  0.84082720  0.51300258  0.05008042     0.37100
H1051       H  0.81040814  0.49255307  0.09381417     0.17400
O1052       O  0.77485454  0.50291076  0.07152483    -0.59500
H1053       H  0.82618908  0.52943215  0.02144285     0.17400
O1054       O  0.86235801  0.51692297  0.04301919    -0.59600
H1055       H  0.86567527  0.50401267  0.03274856     0.44400
H1056       H  0.77195271  0.51635321  0.08128538     0.44400
C1057       C  0.71764756  0.40591623  0.01266936    -0.04700
C1058       C  0.69689361  0.41039978  0.02287029    -0.32100
C1059       C  0.67782598  0.39664627  0.01814732     0.37200
C1060       C  0.67975350  0.37739502  0.00400378    -0.05000
C1061       C  0.70024820  0.37376848  0.99312306    -0.32000
C1062       C  0.71878101  0.38810651  0.99686371     0.37100
H1063       H  0.69592924  0.42341491  0.03582078     0.17400
O1064       O  0.65804319  0.40101944  0.02882840    -0.59500
H1065       H  0.70211929  0.35940895  0.98177530     0.17400
O1066       O  0.73882918  0.38293216  0.98698643    -0.59600
H1067       H  0.74491412  0.37000094  0.99564616     0.44400
H1068       H  0.65040115  0.41238835  0.01935793     0.44400
C1069       C  0.79322585  0.43001153  0.04171413    -0.04700
C1070       C  0.79070503  0.44056016  0.06262834    -0.32100
C1071       C  0.80839758  0.44173737  0.07797476     0.37200
C1072       C  0.83012204  0.43446231  0.07191966    -0.05000
C1073       C  0.83317288  0.42582424  0.05010556    -0.32000
C1074       C  0.81478310  0.42280939  0.03540437     0.37100
H1075       H  0.77412025  0.44528163  0.06823769     0.17400
O1076       O  0.80400134  0.44993497  0.09902399    -0.59500
H1077       H  0.84965301  0.42060075  0.04471893     0.17400
O1078       O  0.81778357  0.41177112  0.01534796    -0.59600
H1079       H  0.81739340  0.39520845  0.01889161     0.44400
H1080       H  0.79841721  0.43651089  0.10748185     0.44400
C1081       C  0.72089315  0.55176420  0.93885144    -0.04700
C1082       C  0.71537741  0.56726090  0.92178054    -0.32100
C1083       C  0.69424015  0.57758647  0.92099115     0.37200
C1084       C  0.67761763  0.57134294  0.93644961    -0.05000
C1085       C  0.68189174  0.55296462  0.95082177    -0.32000
C1086       C  0.70346342  0.54372893  0.95266940     0.37100
H1087       H  0.72843471  0.57368767  0.91086569     0.17400
O1088       O  0.69062516  0.59510577  0.90635094    -0.59500
H1089       H  0.66951112  0.54808171  0.96316158     0.17400
O1090       O  0.70793772  0.52962807  0.97023053    -0.59600
H1091       H  0.69854587  0.51568948  0.96769039     0.44400
H1092       H  0.69864426  0.60860322  0.91285942     0.44400
C1093       C  0.79816739  0.53963376  0.92347580    -0.04700
C1094       C  0.79480123  0.54616514  0.90131036    -0.32100
C1095       C  0.81212080  0.54534550  0.88569743     0.37200
C1096       C  0.83348062  0.53686850  0.89171410    -0.05000
C1097       C  0.83694221  0.53062337  0.91417371    -0.32000
C1098       C  0.81960099  0.53239834  0.93006364     0.37100
H1099       H  0.77867172  0.55271165  0.89619836     0.17400
O1100       O  0.80750602  0.55215482  0.86431062    -0.59500
H1101       H  0.85296441  0.52395100  0.91937484     0.17400
O1102       O  0.82384173  0.52737989  0.95199901    -0.59600
H1103       H  0.82249753  0.51048402  0.95292674     0.44400
H1104       H  0.81163392  0.56864530  0.86397887     0.44400
C1105       C  0.71509625  0.41005369  0.92960070    -0.04700
C1106       C  0.69331272  0.41898408  0.92987817    -0.32100
C1107       C  0.67445909  0.40480671  0.93424560     0.37200
C1108       C  0.67709331  0.38101992  0.93750908    -0.05000
C1109       C  0.69905727  0.37244956  0.93746682    -0.32000
C1110       C  0.71775482  0.38664196  0.93418786     0.37100
H1111       H  0.69078759  0.43670638  0.92546899     0.17400
O1112       O  0.65361620  0.41436256  0.93482576    -0.59500
H1113       H  0.70199260  0.35444915  0.94025462     0.17400
O1114       O  0.73849958  0.37679096  0.93289749    -0.59600
H1115       H  0.74788362  0.38462994  0.94441424     0.44400
H1116       H  0.64766458  0.41267505  0.91939906     0.44400
C1117       C  0.78414573  0.44993489  0.90020199    -0.04700
C1118       C  0.78044952  0.46993769  0.88805578    -0.32100
C1119       C  0.79706692  0.47903211  0.87408084     0.37200
C1120       C  0.81814318  0.46837747  0.87235904    -0.05000
C1121       C  0.82242078  0.44944588  0.88599256    -0.32000
C1122       C  0.80552184  0.44002932  0.89950909     0.37100
H1123       H  0.76392627  0.47741974  0.88788921     0.17400
O1124       O  0.79247530  0.49843103  0.86226405    -0.59500
H1125       H  0.83865932  0.44138621  0.88557945     0.17400
O1126       O  0.80961382  0.42032569  0.91103805    -0.59600
H1127       H  0.80752370  0.40773038  0.89998237     0.44400
H1128       H  0.78460808  0.49298152  0.84855325     0.44400
C1129       C  0.01911250  0.55673837  0.69682966    -0.04700
C1130       C  0.99939092  0.56938430  0.69631744    -0.32100
C1131       C  0.99321995  0.58130953  0.67721265     0.37200
C1132       C  0.00616918  0.57983753  0.65754505    -0.05000
C1133       C  0.02455364  0.56504445  0.65722532    -0.32000
C1134       C  0.03134265  0.55390745  0.67689044     0.37100
H1135       H  0.98995039  0.57198295  0.71155502     0.17400
O1136       O  0.97451501  0.59466282  0.67808042    -0.59500
H1137       H  0.03434658  0.56314580  0.64213861     0.17400
O1138       O  0.05102685  0.54208599  0.67698237    -0.59600
H1139       H  0.04652429  0.52579700  0.67498841     0.44400
H1140       H  0.97946405  0.60911138  0.68551237     0.44400
C1141       C  0.08680492  0.52673894  0.80380347    -0.04700
C1142       C  0.06352678  0.52386014  0.80721801    -0.32100
C1143       C  0.04799661  0.52799985  0.78983906     0.37200
C1144       C  0.05562300  0.53354863  0.76825951    -0.05000
C1145       C  0.07874039  0.53572868  0.76480266    -0.32000
C1146       C  0.09405405  0.53343201  0.78227120     0.37100
H1147       H  0.05733261  0.51847991  0.82335137     0.17400
O1148       O  0.02546653  0.52698663  0.79420234    -0.59500
H1149       H  0.08493099  0.54123389  0.74867544     0.17400
O1150       O  0.11626078  0.53758174  0.77779011    -0.59600
H1151       H  0.11893696  0.55382102  0.78211656     0.44400
H1152       H  0.02140263  0.54279165  0.79862122     0.44400
C1153       C  0.02923074  0.40924333  0.68980152    -0.04700
C1154       C  0.03434668  0.41386779  0.66736747    -0.32100
C1155       C  0.02883019  0.39809950  0.65018790     0.37200
C1156       C  0.01879143  0.37674454  0.65534339    -0.05000
C1157       C  0.01334349  0.37246021  0.67780518    -0.32000
C1158       C  0.01811089  0.38850601  0.69474909     0.37100
H1159       H  0.04397058  0.42911906  0.66331157     0.17400
O1160       O  0.03441966  0.40329073  0.62860363    -0.59500
H1161       H  0.00534258  0.35646964  0.68244319     0.17400
O1162       O  0.01354412  0.38293924  0.71651670    -0.59600
H1163       H  0.02601054  0.37299190  0.72128010     0.44400
H1164       H  0.02226437  0.41329076  0.62322486     0.44400
C1165       C  0.06119618  0.44467137  0.75994705    -0.04700
C1166       C  0.07671823  0.46247186  0.75671874    -0.32100
C1167       C  0.09252660  0.46826672  0.77322726     0.37200
C1168       C  0.09234800  0.45711032  0.79413783    -0.05000
C1169       C  0.07534092  0.44082845  0.79820185    -0.32000
C1170       C  0.06027866  0.43414413  0.78109128     0.37100
H1171       H  0.07827204  0.47018922  0.74037841     0.17400
O1172       O  0.10827485  0.48482829  0.76855280    -0.59500
H1173       H  0.07444272  0.43243191  0.81424516     0.17400
O1174       O  0.04574194  0.41615786  0.78461433    -0.59600
H1175       H  0.05453976  0.40219948  0.78153914     0.44400
H1176       H  0.12019784  0.47682618  0.76017329     0.44400
C1177       C  0.93241041  0.54225502  0.68715593    -0.04700
C1178       C  0.92517478  0.56503912  0.68618659    -0.32100
C1179       C  0.92682318  0.57777844  0.66658981     0.37200
C1180       C  0.93716085  0.56842764  0.64744961    -0.05000
C1181       C  0.94383384  0.54535722  0.64814321    -0.32000
C1182       C  0.94098923  0.53216629  0.66757807     0.37100
H1183       H  0.91756368  0.57289524  0.70072233     0.17400
O1184       O  0.91904623  0.59976525  0.66672676    -0.59500
H1185       H  0.95190593  0.53766298  0.63380717     0.17400
O1186       O  0.94661042  0.50951167  0.66713999    -0.59600
H1187       H  0.93237470  0.50107652  0.66410229     0.44400
H1188       H  0.90346817  0.59853116  0.66095298     0.44400
C1189       C  0.93058865  0.53250183  0.76754086    -0.04700
C1190       C  0.92249787  0.55351343  0.77581961    -0.32100
C1191       C  0.91411806  0.55534382  0.79765586     0.37200
C1192       C  0.91507658  0.53646345  0.81197966    -0.05000
C1193       C  0.92781564  0.51756640  0.80531537    -0.32000
C1194       C  0.93473804  0.51501363  0.78305322     0.37100
H1195       H  0.91927435  0.56730837  0.76429952     0.17400
O1196       O  0.90232744  0.57437657  0.80369552    -0.59500
H1197       H  0.92884787  0.50280433  0.81609599     0.17400
O1198       O  0.94170526  0.49392919  0.77603292    -0.59600
H1199       H  0.95581280  0.49105803  0.78430074     0.44400
H1200       H  0.91267458  0.58343088  0.81342900     0.44400
C1201       C  0.94320232  0.41812465  0.68300794    -0.04700
C1202       C  0.95163985  0.39694066  0.68921407    -0.32100
C1203       C  0.95476433  0.37969089  0.67335772     0.37200
C1204       C  0.95098750  0.38390903  0.65037736    -0.05000
C1205       C  0.94425578  0.40583886  0.64395412    -0.32000
C1206       C  0.93967878  0.42265346  0.66017252     0.37100
H1207       H  0.95356335  0.39289232  0.70676280     0.17400
O1208       O  0.96157450  0.35871176  0.68068083    -0.59500
H1209       H  0.94176705  0.40968192  0.62645202     0.17400
O1210       O  0.93084679  0.44311618  0.65370264    -0.59600
H1211       H  0.91452886  0.44012486  0.65191032     0.44400
H1212       H  0.94763944  0.35056996  0.68519117     0.44400
C1213       C  0.91564300  0.45421708  0.75348053    -0.04700
C1214       C  0.90027602  0.47200382  0.75191110    -0.32100
C1215       C  0.88860303  0.47976254  0.77060402     0.37200
C1216       C  0.89266725  0.47034945  0.79194250    -0.05000
C1217       C  0.90914692  0.45340759  0.79379616    -0.32000
C1218       C  0.92026656  0.44504053  0.77467348     0.37100
H1219       H  0.89595536  0.47872469  0.73564537     0.17400
O1220       O  0.87323493  0.49672983  0.76769420    -0.59500
H1221       H  0.91288856  0.44612159  0.80993844     0.17400
O1222       O  0.93442502  0.42689132  0.77664271    -0.59600
H1223       H  0.94951329  0.43386355  0.77898957     0.44400
H1224       H  0.85957577  0.48887877  0.76180064     0.44400
C1225       C  0.29491564  0.53229983  0.02025720    -0.04700
C1226       C  0.28799625  0.55335670  0.01192240    -0.32100
C1227       C  0.30365364  0.57030143  0.00605449     0.37200
C1228       C  0.32695449  0.56620775  0.00787625    -0.05000
C1229       C  0.33384404  0.54475489  0.01561067    -0.32000
C1230       C  0.31805146  0.52805271  0.02212892     0.37100
H1231       H  0.27028499  0.55708272  0.01079318     0.17400
O1232       O  0.29584954  0.59052191  0.99778512    -0.59500
H1233       H  0.35151900  0.54087943  0.01662487     0.17400
O1234       O  0.32533958  0.50739850  0.02985423    -0.59600
H1235       H  0.33084292  0.51050117  0.04525644     0.44400
H1236       H  0.29247939  0.60003057  0.01112910     0.44400
C1237       C  0.17758601  0.51025156  0.06419221    -0.04700
C1238       C  0.18242458  0.49459520  0.04695838    -0.32100
C1239       C  0.20378637  0.49412467  0.03712612     0.37200
C1240       C  0.22015340  0.51051233  0.04342295    -0.05000
C1241       C  0.21402060  0.52819085  0.05827750    -0.32000
C1242       C  0.19323334  0.52778393  0.06907938     0.37100
H1243       H  0.17086214  0.48055363  0.04342156     0.17400
O1244       O  0.20941788  0.47573127  0.02408723    -0.59500
H1245       H  0.22643678  0.54083947  0.06358345     0.17400
O1246       O  0.18955253  0.54277601  0.08639222    -0.59600
H1247       H  0.18234242  0.55615321  0.07945244     0.44400
H1248       H  0.19887153  0.47578587  0.01125273     0.44400
C1249       C  0.33045682  0.38982887  0.01051650    -0.04700
C1250       C  0.31688023  0.38573097  0.02913169    -0.32100
C1251       C  0.29443335  0.39243127  0.02916422     0.37200
C1252       C  0.28519677  0.40316642  0.01025705    -0.05000
C1253       C  0.29966735  0.41015544  0.99311779    -0.32000
C1254       C  0.32247036  0.40451584  0.99375358     0.37100
H1255       H  0.32276812  0.37472753  0.04233882     0.17400
O1256       O  0.28104299  0.38649376  0.04685694    -0.59500
H1257       H  0.29311955  0.41803838  0.97821979     0.17400
O1258       O  0.33575303  0.41004703  0.97590796    -0.59600
H1259       H  0.34184396  0.42554187  0.97942747     0.44400
H1260       H  0.27860951  0.36970803  0.04549059     0.44400
C1261       C  0.21075080  0.42238224  0.03232431    -0.04700
C1262       C  0.18749364  0.41968492  0.02930906    -0.32100
C1263       C  0.17232445  0.42646901  0.04599836     0.37200
C1264       C  0.18026161  0.43582514  0.06647901    -0.05000
C1265       C  0.20365620  0.43814215  0.06947042    -0.32000
C1266       C  0.21873049  0.43151411  0.05274704     0.37100
H1267       H  0.18106857  0.41199372  0.01400057     0.17400
O1268       O  0.14979200  0.42407061  0.04191027    -0.59500
H1269       H  0.21044204  0.44551739  0.08476348     0.17400
O1270       O  0.24132105  0.43354431  0.05679266    -0.59600
H1271       H  0.24581670  0.41846343  0.06269033     0.44400
H1272       H  0.14559347  0.40889902  0.04802744     0.44400
C1273       C  0.29065153  0.53789903  0.91876073    -0.04700
C1274       C  0.31307885  0.53566128  0.91184339    -0.32100
C1275       C  0.32994572  0.55101005  0.91939953     0.37200
C1276       C  0.32444035  0.56957401  0.93346009    -0.05000
C1277       C  0.30198160  0.57173177  0.94027159    -0.32000
C1278       C  0.28530799  0.55611402  0.93324397     0.37100
H1279       H  0.31751061  0.52204393  0.90035216     0.17400
O1280       O  0.35155715  0.54814894  0.91231405    -0.59500
H1281       H  0.29727535  0.58547514  0.95148808     0.17400
O1282       O  0.26366123  0.55934021  0.94009867    -0.59600
H1283       H  0.25663369  0.56857152  0.92820486     0.44400
H1284       H  0.35789482  0.53642141  0.92235020     0.44400
C1285       C  0.16893187  0.52220887  0.88299167    -0.04700
C1286       C  0.17470913  0.50503555  0.89825135    -0.32100
C1287       C  0.19682252  0.50317105  0.90641755     0.37200
C1288       C  0.21334454  0.51935020  0.90018161    -0.05000
C1289       C  0.20639489  0.53856753  0.88796317    -0.32000
C1290       C  0.18467526  0.53975986  0.87892039     0.37100
H1291       H  0.16297986  0.49112284  0.90139724     0.17400
O1292       O  0.20262935  0.48387905  0.91775895    -0.59500
H1293       H  0.21864619  0.55145690  0.88316327     0.17400
O1294       O  0.17955248  0.55715487  0.86460535    -0.59600
H1295       H  0.18687403  0.55315299  0.85027082     0.44400
H1296       H  0.19344190  0.48391536  0.93156086     0.44400
C1297       C  0.28115766  0.40169727  0.92795000    -0.04700
C1298       C  0.30308576  0.40563217  0.92014681    -0.32100
C1299       C  0.32104990  0.39197546  0.92724220     0.37200
C1300       C  0.31713326  0.37351467  0.94187336    -0.05000
C1301       C  0.29522270  0.37029741  0.95018427    -0.32000
C1302       C  0.27753126  0.38420672  0.94353800     0.37100
H1303       H  0.30606017  0.41851832  0.90755497     0.17400
O1304       O  0.34217293  0.39655066  0.91937914    -0.59500
H1305       H  0.29163851  0.35684612  0.96203809     0.17400
O1306       O  0.25626728  0.37910059  0.95079370    -0.59600
H1307       H  0.25179805  0.39240583  0.96011906     0.44400
H1308       H  0.34342313  0.38736941  0.90543811     0.44400
C1309       C  0.17499450  0.45225918  0.87024601    -0.04700
C1310       C  0.17062448  0.43762322  0.88829530    -0.32100
C1311       C  0.18830390  0.42905824  0.90133850     0.37200
C1312       C  0.21063942  0.43599124  0.89723542    -0.05000
C1313       C  0.21483349  0.45155906  0.88008386    -0.32000
C1314       C  0.19744758  0.45959533  0.86665691     0.37100
H1315       H  0.15359270  0.43215328  0.89180419     0.17400
O1316       O  0.18374144  0.41306981  0.91738984    -0.59500
H1317       H  0.23195617  0.45639401  0.87610650     0.17400
O1318       O  0.20280296  0.47447931  0.84983510    -0.59600
H1319       H  0.20245714  0.48992071  0.85680319     0.44400
H1320       H  0.18290042  0.39820157  0.90927275     0.44400
C1321       C  0.56263259  0.27038993  0.02567298    -0.04700
C1322       C  0.58073825  0.26234163  0.01320995    -0.32100
C1323       C  0.59693951  0.27744206  0.00475893     0.37200
C1324       C  0.59538579  0.30131168  0.00875432    -0.05000
C1325       C  0.57667056  0.30942397  0.02048113    -0.32000
C1326       C  0.56054895  0.29415568  0.02914536     0.37100
H1327       H  0.58279467  0.24411101  0.01062704     0.17400
O1328       O  0.61414537  0.26853927  0.99243921    -0.59500
H1329       H  0.57459676  0.32763134  0.02312620     0.17400
O1330       O  0.54267680  0.30257851  0.04082611    -0.59600
H1331       H  0.54879630  0.30717536  0.05565019     0.44400
H1332       H  0.60832126  0.26741969  0.97691256     0.44400
C1333       C  0.54554605  0.14789778  0.06693583    -0.04700
C1334       C  0.56374357  0.16277742  0.07109151    -0.32100
C1335       C  0.56402430  0.18515851  0.06263760     0.37200
C1336       C  0.54542567  0.19349937  0.05051292    -0.05000
C1337       C  0.52843053  0.17781085  0.04435682    -0.32000
C1338       C  0.52892468  0.15496130  0.05164129     0.37100
H1339       H  0.57688012  0.15775000  0.08252266     0.17400
O1340       O  0.58189589  0.19939090  0.06764993    -0.59500
H1341       H  0.51363503  0.18353912  0.03570769     0.17400
O1342       O  0.51124823  0.14071028  0.04629289    -0.59600
H1343       H  0.51595755  0.13250862  0.03255244     0.44400
H1344       H  0.58121279  0.20217836  0.08401036     0.44400
C1345       C  0.43588468  0.26960610  0.02365230    -0.04700
C1346       C  0.41326043  0.26456488  0.01984004    -0.32100
C1347       C  0.39798289  0.28184340  0.01576338     0.37200
C1348       C  0.40533269  0.30491824  0.01358191    -0.05000
C1349       C  0.42842127  0.30977944  0.01571328    -0.32000
C1350       C  0.44355480  0.29238157  0.02131156     0.37100
H1351       H  0.40692643  0.24731029  0.02244059     0.17400
O1352       O  0.37576893  0.27570781  0.01396544    -0.59500
H1353       H  0.43464894  0.32712990  0.01368726     0.17400
O1354       O  0.46547783  0.29800040  0.02591638    -0.59600
H1355       H  0.47305962  0.29806158  0.01118384     0.44400
H1356       H  0.36993519  0.27623853  0.02945766     0.44400
C1357       C  0.48230599  0.16323503  0.08554802    -0.04700
C1358       C  0.46758908  0.16064964  0.06715439    -0.32100
C1359       C  0.46195978  0.17950157  0.05380258     0.37200
C1360       C  0.47150084  0.20120985  0.05831069    -0.05000
C1361       C  0.48746005  0.20334429  0.07547528    -0.32000
C1362       C  0.49260530  0.18492004  0.08919309     0.37100
H1363       H  0.46011004  0.14407697  0.06334196     0.17400
O1364       O  0.44634657  0.17677090  0.03708580    -0.59500
H1365       H  0.49467052  0.22002246  0.07947400     0.17400
O1366       O  0.50808123  0.18839324  0.10593120    -0.59600
H1367       H  0.49951882  0.19490632  0.11861218     0.44400
H1368       H  0.43171619  0.17987851  0.04420771     0.44400
C1369       C  0.57013135  0.25900763  0.93768040    -0.04700
C1370       C  0.58418809  0.26555855  0.91983361    -0.32100
C1371       C  0.59514661  0.28701991  0.91971867     0.37200
C1372       C  0.59098812  0.30310194  0.93674011    -0.05000
C1373       C  0.57415215  0.29797743  0.95239481    -0.32000
C1374       C  0.56425542  0.27596307  0.95339356     0.37100
H1375       H  0.58898035  0.25291014  0.90745342     0.17400
O1376       O  0.61129282  0.29138512  0.90400606    -0.59500
H1377       H  0.57096269  0.30991922  0.96592801     0.17400
O1378       O  0.55159217  0.27038307  0.97161088    -0.59600
H1379       H  0.53832503  0.28041295  0.97096570     0.44400
H1380       H  0.62481885  0.28330346  0.90926508     0.44400
C1381       C  0.55089362  0.18112063  0.91811682    -0.04700
C1382       C  0.55662752  0.15799077  0.92082310    -0.32100
C1383       C  0.55237670  0.14162776  0.90388171     0.37200
C1384       C  0.54281418  0.14829853  0.88340744    -0.05000
C1385       C  0.53727892  0.17149372  0.88071792    -0.32000
C1386       C  0.54100963  0.18769483  0.89781074     0.37100
H1387       H  0.56492668  0.15267632  0.93601577     0.17400
O1388       O  0.55837733  0.11934471  0.90723544    -0.59500
H1389       H  0.52961597  0.17715757  0.86534363     0.17400
O1390       O  0.53569921  0.21010981  0.89409138    -0.59600
H1391       H  0.54947482  0.21719739  0.88781656     0.44400
H1392       H  0.54620998  0.11262452  0.91643392     0.44400
C1393       C  0.42308315  0.25131769  0.94420014    -0.04700
C1394       C  0.42846723  0.27225150  0.93393745    -0.32100
C1395       C  0.41479419  0.29161993  0.93681650     0.37200
C1396       C  0.39486253  0.29003182  0.94945909    -0.05000
C1397       C  0.39014905  0.26922900  0.96028315    -0.32000
C1398       C  0.40421116  0.25039300  0.95823000     0.37100
H1399       H  0.44240468  0.27315043  0.92241823     0.17400
O1400       O  0.42069191  0.31168159  0.92655060    -0.59500
H1401       H  0.37534049  0.26739788  0.97053022     0.17400
O1402       O  0.39792551  0.23018704  0.96807644    -0.59600
H1403       H  0.40838672  0.22839027  0.98083367     0.44400
H1404       H  0.41332096  0.31091804  0.91168137     0.44400
C1405       C  0.46014468  0.18083705  0.91393369    -0.04700
C1406       C  0.47082444  0.18760118  0.89423776    -0.32100
C1407       C  0.47656693  0.17155487  0.87778601     0.37200
C1408       C  0.47276241  0.14784581  0.88120197    -0.05000
C1409       C  0.46391357  0.14095042  0.90188506    -0.32000
C1410       C  0.45717794  0.15723592  0.91790823     0.37100
H1411       H  0.47257640  0.20565862  0.89050842     0.17400
O1412       O  0.48581932  0.17943726  0.85832822    -0.59500
H1413       H  0.46147931  0.12292969  0.90536168     0.17400
O1414       O  0.44663796  0.15000320  0.93696086    -0.59600
H1415       H  0.43065401  0.14789558  0.93271120     0.44400
H1416       H  0.47288744  0.18326193  0.84864839     0.44400
C1417       C  0.57026284  0.02312596  0.69018066    -0.04700
C1418       C  0.56303204  0.00834821  0.67296486    -0.32100
C1419       C  0.57047713  0.01154211  0.65089716     0.37200
C1420       C  0.58675813  0.02865496  0.64612343    -0.05000
C1421       C  0.59169595  0.04505066  0.66272031    -0.32000
C1422       C  0.58319240  0.04266891  0.68444863     0.37100
H1423       H  0.55336894  0.99309148  0.67681646     0.17400
O1424       O  0.56438499  0.99566376  0.63493548    -0.59500
H1425       H  0.60388274  0.05851251  0.65945770     0.17400
O1426       O  0.58923562  0.05847150  0.70057023    -0.59600
H1427       H  0.60533992  0.05587158  0.70366327     0.44400
H1428       H  0.54986592  0.00101347  0.62895776     0.44400
C1429       C  0.55391548  0.03709718  0.76643677    -0.04700
C1430       C  0.55469342  0.06068579  0.76244711    -0.32100
C1431       C  0.55081035  0.07655577  0.77962922     0.37200
C1432       C  0.54560725  0.06900731  0.80145004    -0.05000
C1433       C  0.54505856  0.04522949  0.80537801    -0.32000
C1434       C  0.54928359  0.02939547  0.78812577     0.37100
H1435       H  0.55899644  0.06686928  0.74596447     0.17400
O1436       O  0.55153078  0.09940578  0.77461367    -0.59500
H1437       H  0.54071733  0.03877999  0.82173240     0.17400
O1438       O  0.54901900  0.00643498  0.79265628    -0.59600
H1439       H  0.53310884  0.00153614  0.79099456     0.44400
H1440       H  0.56713756  0.10443602  0.77794282     0.44400
C1441       C  0.43010091  0.01215016  0.68892539    -0.04700
C1442       C  0.41549252  0.99407792  0.69414458    -0.32100
C1443       C  0.39890874  0.98668729  0.67898979     0.37200
C1444       C  0.39721511  0.99663632  0.65754660    -0.05000
C1445       C  0.41327187  0.01325904  0.65152864    -0.32000
C1446       C  0.42919861  0.02144421  0.66722563     0.37100
H1447       H  0.41543622  0.98717321  0.71089935     0.17400
O1448       O  0.38434376  0.96966591  0.68546148    -0.59500
H1449       H  0.41282135  0.02068608  0.63501546     0.17400
O1450       O  0.44310144  0.03937206  0.66164467    -0.59600
H1451       H  0.43395071  0.05329577  0.66354816     0.44400
H1452       H  0.37265791  0.97749805  0.69432481     0.44400
C1453       C  0.47447737  0.06745674  0.79949464    -0.04700
C1454       C  0.48744491  0.06582345  0.77996023    -0.32100
C1455       C  0.48071079  0.05184702  0.76196758     0.37200
C1456       C  0.46031964  0.03966450  0.76295983    -0.05000
C1457       C  0.44822083  0.03980673  0.78318486    -0.32000
C1458       C  0.45538371  0.05330857  0.80153289     0.37100
H1459       H  0.50256836  0.07609523  0.77831972     0.17400
O1460       O  0.49312160  0.05187488  0.74271310    -0.59500
H1461       H  0.43221160  0.03089152  0.78408981     0.17400
O1462       O  0.44283820  0.05369150  0.82067549    -0.59600
H1463       H  0.43275986  0.06693410  0.81904054     0.44400
H1464       H  0.48765276  0.06504061  0.73398856     0.44400
C1465       C  0.59959653  0.95917345  0.65224907    -0.04700
C1466       C  0.58179126  0.94391851  0.64730039    -0.32100
C1467       C  0.56872904  0.93440195  0.66449185     0.37200
C1468       C  0.57268553  0.94081646  0.68691974    -0.05000
C1469       C  0.58936908  0.95719210  0.69170222    -0.32000
C1470       C  0.60291371  0.96612735  0.67477387     0.37100
H1471       H  0.57843685  0.93879268  0.63016308     0.17400
O1472       O  0.55275300  0.91807955  0.65935566    -0.59500
H1473       H  0.59309148  0.96177996  0.70892580     0.17400
O1474       O  0.61914210  0.98198287  0.68051794    -0.59600
H1475       H  0.63211458  0.97291936  0.68560195     0.44400
H1476       H  0.56100193  0.90349742  0.65814273     0.44400
C1477       C  0.54365588  0.90302153  0.75622417    -0.04700
C1478       C  0.53179668  0.88242769  0.75313214    -0.32100
C1479       C  0.52660950  0.86832974  0.77114049     0.37200
C1480       C  0.53322344  0.87462038  0.79316274    -0.05000
C1481       C  0.54385622  0.89605026  0.79646578    -0.32000
C1482       C  0.54947185  0.90997506  0.77812659     0.37100
H1483       H  0.52776014  0.87648510  0.73636025     0.17400
O1484       O  0.51509787  0.84828002  0.76682501    -0.59500
H1485       H  0.54837549  0.90172302  0.81317932     0.17400
O1486       O  0.56139051  0.92991073  0.78166616    -0.59600
H1487       H  0.57736626  0.92551352  0.78099539     0.44400
H1488       H  0.49905834  0.85252266  0.76654979     0.44400
C1489       C  0.43880662  0.91836777  0.68236162    -0.04700
C1490       C  0.44431350  0.92392633  0.66026331    -0.32100
C1491       C  0.42748237  0.92811609  0.64425014     0.37200
C1492       C  0.40452889  0.92578058  0.64990790    -0.05000
C1493       C  0.39926238  0.91983315  0.67209024    -0.32000
C1494       C  0.41604004  0.91633262  0.68813426     0.37100
H1495       H  0.46175474  0.92480771  0.65534078     0.17400
O1496       O  0.43375710  0.93446497  0.62316000    -0.59500
H1497       H  0.38194897  0.91834751  0.67731289     0.17400
O1498       O  0.40998582  0.91034892  0.70941670    -0.59600
H1499       H  0.40907386  0.89338538  0.70923818     0.44400
H1500       H  0.43646647  0.95123947  0.62414291     0.44400
C1501       C  0.46330817  0.89743853  0.75585763    -0.04700
C1502       C  0.44654652  0.88177538  0.76282774    -0.32100
C1503       C  0.44747860  0.87140461  0.78391844     0.37200
C1504       C  0.46437692  0.87780610  0.79922065    -0.05000
C1505       C  0.47906742  0.89580936  0.79352108    -0.32000
C1506       C  0.47919143  0.90504430  0.77186690     0.37100
H1507       H  0.43408382  0.87560216  0.75092318     0.17400
O1508       O  0.43273686  0.85397403  0.78885166    -0.59500
H1509       H  0.49256988  0.90061381  0.80485520     0.17400
O1510       O  0.49681001  0.91882036  0.76577151    -0.59600
H1511       H  0.49669131  0.93208822  0.77623574     0.44400
H1512       H  0.43866900  0.84024552  0.78113184     0.44400
C1513       C  0.57350332  0.68510225  0.02720120    -0.04700
C1514       C  0.56913802  0.66156629  0.02949647    -0.32100
C1515       C  0.58503667  0.64521443  0.02305217     0.37200
C1516       C  0.60615765  0.65224273  0.01458976    -0.05000
C1517       C  0.61064718  0.67594229  0.01310270    -0.32000
C1518       C  0.59467847  0.69217197  0.01938305     0.37100
H1519       H  0.55331935  0.65583049  0.03646725     0.17400
O1520       O  0.57960930  0.62244221  0.02499031    -0.59500
H1521       H  0.62644756  0.68207068  0.00643369     0.17400
O1522       O  0.60007194  0.71501069  0.01801535    -0.59600
H1523       H  0.60593708  0.71933515  0.03301792     0.44400
H1524       H  0.57035616  0.61868320  0.01160338     0.44400
C1525       C  0.55366152  0.76223736  0.04702945    -0.04700
C1526       C  0.57259571  0.77012302  0.05927027    -0.32100
C1527       C  0.57283757  0.79164123  0.06992119     0.37200
C1528       C  0.55457539  0.80627900  0.06738448    -0.05000
C1529       C  0.53778113  0.80019522  0.05182130    -0.32000
C1530       C  0.53676460  0.77814710  0.04223791     0.37100
H1531       H  0.58596402  0.75837679  0.06305567     0.17400
O1532       O  0.58972215  0.79708069  0.08471189    -0.59500
H1533       H  0.52341620  0.81114985  0.04976210     0.17400
O1534       O  0.51748460  0.77142058  0.03143186    -0.59600
H1535       H  0.51612873  0.78165330  0.01835081     0.44400
H1536       H  0.60122096  0.80517627  0.07570879     0.44400
C1537       C  0.40793096  0.64650225  0.00845655    -0.04700
C1538       C  0.40189561  0.66963224  0.01072676    -0.32100
C1539       C  0.41767653  0.68663947  0.01652855     0.37200
C1540       C  0.44015854  0.68096355  0.02067830    -0.05000
C1541       C  0.44645663  0.65800233  0.01823875    -0.32000
C1542       C  0.43068874  0.64090566  0.01197002     0.37100
H1543       H  0.38472800  0.67473565  0.00799797     0.17400
O1544       O  0.41039352  0.70844820  0.02062977    -0.59500
H1545       H  0.46338895  0.65309172  0.02245862     0.17400
O1546       O  0.43772667  0.61877585  0.00971183    -0.59600
H1547       H  0.43644732  0.61214434  0.02486394     0.44400
H1548       H  0.41379819  0.71710977  0.00687013     0.44400
C1549       C  0.48874721  0.78934631  0.08178496    -0.04700
C1550       C  0.47194857  0.79073084  0.06529168    -0.32100
C1551       C  0.46562699  0.77125102  0.05247438     0.37200
C1552       C  0.47685348  0.75034987  0.05526610    -0.05000
C1553       C  0.49450695  0.74951516  0.07068027    -0.32000
C1554       C  0.50038245  0.76850342  0.08388353     0.37100
H1555       H  0.46311788  0.80660984  0.06297073     0.17400
O1556       O  0.44765118  0.77243973  0.03820928    -0.59500
H1557       H  0.50289683  0.73346415  0.07355726     0.17400
O1558       O  0.51811279  0.76659592  0.09839302    -0.59600
H1559       H  0.51192083  0.75875292  0.11168890     0.44400
H1560       H  0.43441620  0.76821002  0.04734581     0.44400
C1561       C  0.57545978  0.69213860  0.93408241    -0.04700
C1562       C  0.58393578  0.67880692  0.91628613    -0.32100
C1563       C  0.59415862  0.65761505  0.92014889     0.37200
C1564       C  0.59471113  0.64859261  0.94181558    -0.05000
C1565       C  0.58365289  0.66051907  0.95895117    -0.32000
C1566       C  0.57513550  0.68251318  0.95551493     0.37100
H1567       H  0.58489413  0.68602657  0.89969154     0.17400
O1568       O  0.60480448  0.64660189  0.90295884    -0.59500
H1569       H  0.58409615  0.65401389  0.97575073     0.17400
O1570       O  0.56922539  0.69541324  0.97369883    -0.59600
H1571       H  0.58184577  0.70638119  0.97614307     0.44400
H1572       H  0.61993088  0.65379618  0.90223034     0.44400
C1573       C  0.55100646  0.76912952  0.91260203    -0.04700
C1574       C  0.54191125  0.76111404  0.89236843    -0.32100
C1575       C  0.53646851  0.77615645  0.87514402     0.37200
C1576       C  0.53837821  0.80016707  0.87831928    -0.05000
C1577       C  0.54677936  0.80827424  0.89902440    -0.32000
C1578       C  0.55373950  0.79297902  0.91571919     0.37100
H1579       H  0.54085052  0.74285353  0.88910685     0.17400
O1580       O  0.52953713  0.76694432  0.85511026    -0.59500
H1581       H  0.54836745  0.82650652  0.90216771     0.17400
O1582       O  0.56363907  0.80145347  0.93484731    -0.59600
H1583       H  0.57959225  0.80414237  0.93090717     0.44400
H1584       H  0.54344996  0.76468902  0.84641268     0.44400
C1585       C  0.43604155  0.68870396  0.93898206    -0.04700
C1586       C  0.44031446  0.66773789  0.92811306    -0.32100
C1587       C  0.42557360  0.64883209  0.93045465     0.37200
C1588       C  0.40564575  0.65128902  0.94272663    -0.05000
C1589       C  0.40242453  0.67175817  0.95473900    -0.32000
C1590       C  0.41763613  0.68999961  0.95344730     0.37100
H1591       H  0.45401283  0.66663088  0.91634347     0.17400
O1592       O  0.42986948  0.62880517  0.91928779    -0.59500
H1593       H  0.38773307  0.67388516  0.96507953     0.17400
O1594       O  0.41279391  0.71025496  0.96406101    -0.59600
H1595       H  0.40081708  0.71732624  0.95499128     0.44400
H1596       H  0.44037179  0.62048185  0.92908827     0.44400
C1597       C  0.46432497  0.76482271  0.91451282    -0.04700
C1598       C  0.47543152  0.76015477  0.89455514    -0.32100
C1599       C  0.47696863  0.77664084  0.87799219     0.37200
C1600       C  0.47036440  0.79946959  0.88226268    -0.05000
C1601       C  0.46214040  0.80497122  0.90359743    -0.32000
C1602       C  0.45834630  0.78760366  0.91939571     0.37100
H1603       H  0.47952623  0.74263208  0.89024541     0.17400
O1604       O  0.48434415  0.76985507  0.85733572    -0.59500
H1605       H  0.45747043  0.82238753  0.90752912     0.17400
O1606       O  0.44693023  0.79260641  0.93861838    -0.59600
H1607       H  0.45860978  0.79394960  0.95040811     0.44400
H1608       H  0.47091334  0.76339583  0.84959936     0.44400
C1609       C  0.56379698  0.02104834  0.26297921    -0.04700
C1610       C  0.55826858  0.02357957  0.28568290    -0.32100
C1611       C  0.57218089  0.01488004  0.30264750     0.37200
C1612       C  0.59249687  0.00402288  0.29713497    -0.05000
C1613       C  0.59775081  0.00140115  0.27428348    -0.32000
C1614       C  0.58367696  0.00965532  0.25743123     0.37100
H1615       H  0.54333913  0.03281732  0.29028908     0.17400
O1616       O  0.56573762  0.01723743  0.32449469    -0.59500
H1617       H  0.61292885  0.99281382  0.26929301     0.17400
O1618       O  0.59043022  0.00799405  0.23559416    -0.59600
H1619       H  0.58041040  0.99624914  0.22866102     0.44400
H1620       H  0.57289171  0.03174053  0.32974967     0.44400
C1621       C  0.54521084  0.06089334  0.14238905    -0.04700
C1622       C  0.52697152  0.04793009  0.15038385    -0.32100
C1623       C  0.52676745  0.03958115  0.17238208     0.37200
C1624       C  0.54574301  0.04272153  0.18624410    -0.05000
C1625       C  0.56547433  0.05160935  0.17636385    -0.32000
C1626       C  0.56507480  0.06142228  0.15501787     0.37100
H1627       H  0.51144586  0.04734979  0.14092965     0.17400
O1628       O  0.50694771  0.03167645  0.18095457    -0.59500
H1629       H  0.58053301  0.05378901  0.18638811     0.17400
O1630       O  0.58352046  0.07326817  0.14748729    -0.59600
H1631       H  0.58340237  0.08817127  0.15555574     0.44400
H1632       H  0.50221412  0.01860683  0.17123952     0.44400
C1633       C  0.42541804  0.01535670  0.26247457    -0.04700
C1634       C  0.40356469  0.00800662  0.25717523    -0.32100
C1635       C  0.38774038  0.00359684  0.27381834     0.37200
C1636       C  0.39387085  0.00471050  0.29669877    -0.05000
C1637       C  0.41630981  0.01053811  0.30200157    -0.32000
C1638       C  0.43177811  0.01644681  0.28515706     0.37100
H1639       H  0.39800116  0.00803013  0.23990360     0.17400
O1640       O  0.36623747  0.99820341  0.26729072    -0.59500
H1641       H  0.42179600  0.01103445  0.31927112     0.17400
O1642       O  0.45277447  0.02424616  0.29106007    -0.59600
H1643       H  0.45109179  0.04087137  0.29395036     0.44400
H1644       H  0.35845792  0.01307927  0.26647598     0.44400
C1645       C  0.46353133  0.05111195  0.19607275    -0.04700
C1646       C  0.45538929  0.04770651  0.17418352    -0.32100
C1647       C  0.46304436  0.06140208  0.15637916     0.37200
C1648       C  0.47878090  0.07933754  0.16033252    -0.05000
C1649       C  0.48720436  0.08225014  0.18222415    -0.32000
C1650       C  0.47983401  0.06839067  0.19980167     0.37100
H1651       H  0.44206360  0.03528218  0.17111886     0.17400
O1652       O  0.45457700  0.05741632  0.13535263    -0.59500
H1653       H  0.49972836  0.09535796  0.18586365     0.17400
O1654       O  0.48758358  0.07291543  0.22101624    -0.59600
H1655       H  0.49844427  0.06064628  0.22418553     0.44400
H1656       H  0.44088642  0.06680393  0.13444466     0.44400
C1657       C  0.56845573  0.93620971  0.25999516    -0.04700
C1658       C  0.58212553  0.91745042  0.26494821    -0.32100
C1659       C  0.59148200  0.91491551  0.28629638     0.37200
C1660       C  0.58644981  0.93072588  0.30331931    -0.05000
C1661       C  0.56974032  0.94695973  0.29932371    -0.32000
C1662       C  0.56140196  0.95039342  0.27764957     0.37100
H1663       H  0.58789452  0.90646171  0.25152588     0.17400
O1664       O  0.60796888  0.89912479  0.28945002    -0.59500
H1665       H  0.56593948  0.95960170  0.31206848     0.17400
O1666       O  0.54937903  0.96969895  0.27338890    -0.59600
H1667       H  0.53546726  0.96822282  0.28231170     0.44400
H1668       H  0.59996017  0.88423796  0.29088735     0.44400
C1669       C  0.55713650  0.92112676  0.18317168    -0.04700
C1670       C  0.56177536  0.89816319  0.18733588    -0.32100
C1671       C  0.56084114  0.88174557  0.17023083     0.37200
C1672       C  0.55410472  0.88786752  0.14833667    -0.05000
C1673       C  0.55000144  0.91114027  0.14409688    -0.32000
C1674       C  0.55199485  0.92774695  0.16121822     0.37100
H1675       H  0.56680590  0.89300011  0.20395658     0.17400
O1676       O  0.56554719  0.85952526  0.17554207    -0.59500
H1677       H  0.54470613  0.91643970  0.12762757     0.17400
O1678       O  0.54843562  0.95030914  0.15644019    -0.59600
H1679       H  0.56338263  0.95661337  0.15240149     0.44400
H1680       H  0.58207049  0.85839242  0.17437850     0.44400
C1681       C  0.43051912  0.92827327  0.26316936    -0.04700
C1682       C  0.43375599  0.91909222  0.28465954    -0.32100
C1683       C  0.41847123  0.92328044  0.30210356     0.37200
C1684       C  0.39901262  0.93590957  0.29790946    -0.05000
C1685       C  0.39634275  0.94570653  0.27666781    -0.32000
C1686       C  0.41202467  0.94239950  0.25963674     0.37100
H1687       H  0.44731342  0.90729223  0.28745600     0.17400
O1688       O  0.42174551  0.91339256  0.32252053    -0.59500
H1689       H  0.38175860  0.95585512  0.27308873     0.17400
O1690       O  0.40806949  0.95140204  0.23890869    -0.59600
H1691       H  0.39770955  0.94037012  0.23135506     0.44400
H1692       H  0.43176920  0.92417626  0.33081021     0.44400
C1693       C  0.46520737  0.90168080  0.19125645    -0.04700
C1694       C  0.48521023  0.89020429  0.19545116    -0.32100
C1695       C  0.49435497  0.87552589  0.17935047     0.37200
C1696       C  0.48395479  0.87271999  0.15820201    -0.05000
C1697       C  0.46513864  0.88598233  0.15328927    -0.32000
C1698       C  0.45549599  0.89995546  0.16978186     0.37100
H1699       H  0.49258583  0.89084888  0.21203187     0.17400
O1700       O  0.51350050  0.86396163  0.18453586    -0.59500
H1701       H  0.45726624  0.88470287  0.13697669     0.17400
O1702       O  0.43577280  0.91081367  0.16524686    -0.59600
H1703       H  0.42384348  0.89902800  0.16728531     0.44400
H1704       H  0.50844101  0.85063509  0.19343970     0.44400
C1705       C  0.30882273  0.99172946  0.58549266    -0.04700
C1706       C  0.31018745  0.00467662  0.56575338    -0.32100
C1707       C  0.29079639  0.00887580  0.55278288     0.37200
C1708       C  0.27004098  0.99870350  0.55849661    -0.05000
C1709       C  0.26936974  0.98401360  0.57687270    -0.32000
C1710       C  0.28793277  0.98140336  0.59080710     0.37100
H1711       H  0.32603914  0.01236006  0.56092297     0.17400
O1712       O  0.29204234  0.02387430  0.53533439    -0.59500
H1713       H  0.25348964  0.97653999  0.58201660     0.17400
O1714       O  0.28524403  0.96862583  0.60975347    -0.59600
H1715       H  0.27934320  0.97939009  0.62114476     0.44400
H1716       H  0.28991200  0.03923354  0.54213368     0.44400
C1717       C  0.16424239  0.06187870  0.51873134    -0.04700
C1718       C  0.18690514  0.06863306  0.51697477    -0.32100
C1719       C  0.20423879  0.05310397  0.51978988     0.37200
C1720       C  0.19943262  0.03041393  0.52583750    -0.05000
C1721       C  0.17685690  0.02327132  0.52715476    -0.32000
C1722       C  0.15932443  0.03866119  0.52319554     0.37100
H1723       H  0.19142769  0.08618501  0.51327407     0.17400
O1724       O  0.22604816  0.06079511  0.51863626    -0.59500
H1725       H  0.17282199  0.00611777  0.53272844     0.17400
O1726       O  0.13756510  0.03095903  0.52444438    -0.59600
H1727       H  0.13327211  0.03311527  0.54031195     0.44400
H1728       H  0.22917580  0.06832064  0.53326473     0.44400
C1729       C  0.27838822  0.00599718  0.40963024    -0.04700
C1730       C  0.27381062  0.99624794  0.38856475    -0.32100
C1731       C  0.29057708  0.99380307  0.37245322     0.37200
C1732       C  0.31330088  0.99895014  0.37766460    -0.05000
C1733       C  0.31825069  0.00670556  0.39955531    -0.32000
C1734       C  0.30098626  0.01086635  0.41516655     0.37100
H1735       H  0.25653871  0.99325570  0.38349880     0.17400
O1736       O  0.28424033  0.98671828  0.35142659    -0.59500
H1737       H  0.33545627  0.01038293  0.40433550     0.17400
O1738       O  0.30620891  0.02143569  0.43508285    -0.59600
H1739       H  0.30603032  0.00903349  0.44629168     0.44400
H1740       H  0.28058916  0.00095184  0.34333294     0.44400
C1741       C  0.20761992  0.03635284  0.44399015    -0.04700
C1742       C  0.21102681  0.05605366  0.45705180    -0.32100
C1743       C  0.19377195  0.07156108  0.46069015     0.37200
C1744       C  0.17164787  0.06667545  0.45311752    -0.05000
C1745       C  0.16766734  0.04562031  0.44206331    -0.32000
C1746       C  0.18557604  0.03093958  0.43682467     0.37100
H1747       H  0.22791751  0.06101657  0.46201568     0.17400
O1748       O  0.19904492  0.09174325  0.47145440    -0.59500
H1749       H  0.15087748  0.04103385  0.43654973     0.17400
O1750       O  0.18161361  0.01200628  0.42362142    -0.59600
H1751       H  0.18241867  0.01759495  0.40804194     0.44400
H1752       H  0.20458823  0.10211299  0.45959606     0.44400
C1753       C  0.28208011  0.91426427  0.54500163    -0.04700
C1754       C  0.30448799  0.91460219  0.53786600    -0.32100
C1755       C  0.32218884  0.91952373  0.55293606     0.37200
C1756       C  0.31777737  0.92341454  0.57586934    -0.05000
C1757       C  0.29525133  0.92257058  0.58288153    -0.32000
C1758       C  0.27762728  0.91840762  0.56773742     0.37100
H1759       H  0.30831390  0.91050922  0.52062003     0.17400
O1760       O  0.34369976  0.92037323  0.54500724    -0.59500
H1761       H  0.29109368  0.92553628  0.60024175     0.17400
O1762       O  0.25602119  0.91762726  0.57550193    -0.59600
H1763       H  0.25346923  0.90157539  0.58021990     0.44400
H1764       H  0.34916283  0.90446378  0.54604899     0.44400
C1765       C  0.20429001  0.89675744  0.52419845    -0.04700
C1766       C  0.19139475  0.90365111  0.50581394    -0.32100
C1767       C  0.16850129  0.89771712  0.50418039     0.37200
C1768       C  0.15880221  0.88237012  0.51961869    -0.05000
C1769       C  0.17083663  0.87754741  0.53909775    -0.32000
C1770       C  0.19313292  0.88518563  0.54176222     0.37100
H1771       H  0.19924381  0.91163815  0.49158770     0.17400
O1772       O  0.15678415  0.90411215  0.48556553    -0.59500
H1773       H  0.16367402  0.86607594  0.55136456     0.17400
O1774       O  0.20461321  0.87949854  0.56082262    -0.59600
H1775       H  0.20606262  0.86260229  0.56034152     0.44400
H1776       H  0.14953057  0.91868963  0.48984363     0.44400
C1777       C  0.28757237  0.92451735  0.41431925    -0.04700
C1778       C  0.28051551  0.93024069  0.39275297    -0.32100
C1779       C  0.29598386  0.93341570  0.37548667     0.37200
C1780       C  0.31931482  0.93217565  0.37976449    -0.05000
C1781       C  0.32634962  0.92819686  0.40186450    -0.32000
C1782       C  0.31072412  0.92411356  0.41892219     0.37100
H1783       H  0.26279190  0.92978838  0.38867434     0.17400
O1784       O  0.28792144  0.93761978  0.35445180    -0.59500
H1785       H  0.34405024  0.92778581  0.40589416     0.17400
O1786       O  0.31824255  0.91783736  0.43963114    -0.59600
H1787       H  0.31678270  0.93172993  0.44913408     0.44400
H1788       H  0.28524130  0.92230423  0.34760788     0.44400
C1789       C  0.21864312  0.88946437  0.44720647    -0.04700
C1790       C  0.19880057  0.89716612  0.43719302    -0.32100
C1791       C  0.17818864  0.88565268  0.44080706     0.37200
C1792       C  0.17738013  0.86588865  0.45427198    -0.05000
C1793       C  0.19722551  0.85904533  0.46491866    -0.32000
C1794       C  0.21745435  0.87064426  0.46171983     0.37100
H1795       H  0.19951931  0.91117095  0.42546602     0.17400
O1796       O  0.15916671  0.89358883  0.43075809    -0.59500
H1797       H  0.19722109  0.84447078  0.47598096     0.17400
O1798       O  0.23649823  0.86192965  0.47119969    -0.59600
H1799       H  0.24316090  0.87457370  0.48026934     0.44400
H1800       H  0.15793939  0.88500586  0.41642964     0.44400
C1801       C  0.01231797  0.64971094  0.57097989    -0.04700
C1802       C  0.00312771  0.67164836  0.56867578    -0.32100
C1803       C  0.01261961  0.68785903  0.55426524     0.37200
C1804       C  0.03172723  0.68246382  0.54173385    -0.05000
C1805       C  0.04034671  0.66017548  0.54319838    -0.32000
C1806       C  0.03067125  0.64380158  0.55747895     0.37100
H1807       H  0.98854952  0.67641779  0.57830946     0.17400
O1808       O  0.00409205  0.70951988  0.55380679    -0.59500
H1809       H  0.05547178  0.65590048  0.53420774     0.17400
O1810       O  0.03993573  0.62251006  0.55883094    -0.59600
H1811       H  0.05048639  0.62346872  0.57166649     0.44400
H1812       H  0.01081480  0.71759197  0.56689924     0.44400
C1813       C  0.05592731  0.76174363  0.52162918    -0.04700
C1814       C  0.06116928  0.77724947  0.53921057    -0.32100
C1815       C  0.07058769  0.79893317  0.53494248     0.37200
C1816       C  0.07326796  0.80623821  0.51285335    -0.05000
C1817       C  0.06458730  0.79229334  0.49554769    -0.32000
C1818       C  0.05737798  0.76974104  0.49956074     0.37100
H1819       H  0.06050673  0.77149498  0.55636442     0.17400
O1820       O  0.07947176  0.81166219  0.55225574    -0.59500
H1821       H  0.06663513  0.79761999  0.47849889     0.17400
O1822       O  0.05482957  0.75504357  0.48174268    -0.59600
H1823       H  0.06917420  0.74673589  0.48070359     0.44400
H1824       H  0.06658190  0.81981113  0.55884342     0.44400
C1825       C  0.04476292  0.67932390  0.41061370    -0.04700
C1826       C  0.06533069  0.67055284  0.40300342    -0.32100
C1827       C  0.06657754  0.64839637  0.39392216     0.37200
C1828       C  0.04731633  0.63428714  0.39322055    -0.05000
C1829       C  0.02825449  0.64137649  0.40502148    -0.32000
C1830       C  0.02658964  0.66397623  0.41303945     0.37100
H1831       H  0.07966003  0.68197577  0.40115967     0.17400
O1832       O  0.08561985  0.64204006  0.38285438    -0.59500
H1833       H  0.01317985  0.63081912  0.40466121     0.17400
O1834       O  0.00613071  0.67171442  0.41977076    -0.59600
H1835       H  0.00210649  0.66255810  0.43310045     0.44400
H1836       H  0.09372886  0.63211759  0.39344062     0.44400
C1837       C  0.06263141  0.75798078  0.42714672    -0.04700
C1838       C  0.05631658  0.78095408  0.42631318    -0.32100
C1839       C  0.07094054  0.79848936  0.43376482     0.37200
C1840       C  0.09252052  0.79320491  0.44213069    -0.05000
C1841       C  0.09887127  0.77009778  0.44236676    -0.32000
C1842       C  0.08424974  0.75268517  0.43484898     0.37100
H1843       H  0.04000026  0.78532172  0.41972334     0.17400
O1844       O  0.06333870  0.82052607  0.43408165    -0.59500
H1845       H  0.11514752  0.76536929  0.44878240     0.17400
O1846       O  0.09135803  0.73045928  0.43484215    -0.59600
H1847       H  0.09842325  0.72810721  0.42000780     0.44400
H1848       H  0.06724742  0.82679234  0.41923633     0.44400
C1849       C  0.94459531  0.68257470  0.53910565    -0.04700
C1850       C  0.95921117  0.66511063  0.53284903    -0.32100
C1851       C  0.95698001  0.64318173  0.54214636     0.37200
C1852       C  0.94093945  0.63912820  0.55905985    -0.05000
C1853       C  0.92417973  0.65536745  0.56236892    -0.32000
C1854       C  0.92556669  0.67674133  0.55199400     0.37100
H1855       H  0.97388539  0.66904592  0.52294449     0.17400
O1856       O  0.97312085  0.62734491  0.53763545    -0.59500
H1857       H  0.91154247  0.65259354  0.57505423     0.17400
O1858       O  0.91028643  0.69312902  0.55760287    -0.59600
H1859       H  0.89750430  0.69051004  0.54720862     0.44400
H1860       H  0.96611698  0.61664996  0.52662207     0.44400
C1861       C  0.93083954  0.76056417  0.52506781    -0.04700
C1862       C  0.93514020  0.78362355  0.53077743    -0.32100
C1863       C  0.91890920  0.80047209  0.52726667     0.37200
C1864       C  0.89758314  0.79424338  0.51878053    -0.05000
C1865       C  0.89340430  0.77109226  0.51323862    -0.32000
C1866       C  0.90979994  0.75447018  0.51602064     0.37100
H1867       H  0.95104665  0.78850733  0.53833779     0.17400
O1868       O  0.92384638  0.82279855  0.53279666    -0.59500
H1869       H  0.87742322  0.76577864  0.50615131     0.17400
O1870       O  0.90476556  0.73213583  0.51054296    -0.59600
H1871       H  0.89616209  0.72611882  0.52342043     0.44400
H1872       H  0.93289239  0.82872104  0.52017426     0.44400
C1873       C  0.98375487  0.65494020  0.36817175    -0.04700
C1874       C  0.96779715  0.64972992  0.38476765    -0.32100
C1875       C  0.95834571  0.66704488  0.39814261     0.37200
C1876       C  0.96516240  0.69005634  0.39568039    -0.05000
C1877       C  0.98175996  0.69517414  0.37987354    -0.32000
C1878       C  0.99097152  0.67804688  0.36623946     0.37100
H1879       H  0.96228432  0.63219562  0.38717936     0.17400
O1880       O  0.94186055  0.66140706  0.41309868    -0.59500
H1881       H  0.98666058  0.71285204  0.37712392     0.17400
O1882       O  0.00710515  0.68425228  0.35112045    -0.59600
H1883       H  0.99874592  0.68871934  0.33751787     0.44400
H1884       H  0.92764246  0.66197270  0.40448192     0.44400
C1885       C  0.92516008  0.75636337  0.43190320    -0.04700
C1886       C  0.90585730  0.75008140  0.44369297    -0.32100
C1887       C  0.89069736  0.76654039  0.45123830     0.37200
C1888       C  0.89490663  0.79020025  0.44776987    -0.05000
C1889       C  0.91493224  0.79655106  0.43694189    -0.32000
C1890       C  0.92969708  0.77986355  0.42866919     0.37100
H1891       H  0.90157438  0.73211276  0.44555490     0.17400
O1892       O  0.87171919  0.75910661  0.46196812    -0.59500
H1893       H  0.91881279  0.81446830  0.43422394     0.17400
O1894       O  0.94770400  0.78663855  0.41606858    -0.59600
H1895       H  0.96076791  0.78610549  0.42633512     0.44400
H1896       H  0.86078265  0.75544785  0.44988402     0.44400
C1897       C  0.66591665  0.03424902  0.56350265    -0.04700
C1898       C  0.66322494  0.02753675  0.54091095    -0.32100
C1899       C  0.68121191  0.02903082  0.52566666     0.37200
C1900       C  0.70250375  0.03668856  0.53296496    -0.05000
C1901       C  0.70494430  0.04416666  0.55520455    -0.32000
C1902       C  0.68698058  0.04350727  0.57017728     0.37100
H1903       H  0.64739279  0.02030315  0.53518203     0.17400
O1904       O  0.67773131  0.02329938  0.50365386    -0.59500
H1905       H  0.72092160  0.05113910  0.56090032     0.17400
O1906       O  0.69066396  0.05099513  0.59168145    -0.59600
H1907       H  0.68602095  0.06722225  0.59182951     0.44400
H1908       H  0.67780348  0.00633750  0.50314111     0.44400
C1909       C  0.78112103  0.04298300  0.52130594    -0.04700
C1910       C  0.78745655  0.05400432  0.54142003    -0.32100
C1911       C  0.80929509  0.06282052  0.54447867     0.37200
C1912       C  0.82546404  0.05980930  0.52768064    -0.05000
C1913       C  0.82022693  0.04492569  0.50975852    -0.32000
C1914       C  0.79812630  0.03704934  0.50614525     0.37100
H1915       H  0.77470782  0.05856493  0.55345661     0.17400
O1916       O  0.81402937  0.07639859  0.56276512    -0.59500
H1917       H  0.83229888  0.04240075  0.49650669     0.17400
O1918       O  0.79286638  0.02663047  0.48621084    -0.59600
H1919       H  0.80138316  0.01208864  0.48598333     0.44400
H1920       H  0.80621113  0.09100960  0.56007943     0.44400
C1921       C  0.67350572  0.00425976  0.37368119    -0.04700
C1922       C  0.69539405  0.00492363  0.36512135    -0.32100
C1923       C  0.71395930  0.00885587  0.37898862     0.37200
C1924       C  0.71111116  0.01403875  0.40183581    -0.05000
C1925       C  0.68934636  0.01354521  0.41063038    -0.32000
C1926       C  0.67068119  0.00830553  0.39689148     0.37100
H1927       H  0.69838296  0.00163222  0.34755040     0.17400
O1928       O  0.73503496  0.00886797  0.36981904    -0.59500
H1929       H  0.68667574  0.01846006  0.42790154     0.17400
O1930       O  0.64983271  0.00731106  0.40639487    -0.59600
H1931       H  0.64381383  0.02296927  0.40494078     0.44400
H1932       H  0.73604102  0.02292447  0.36066701     0.44400
C1933       C  0.77556734  0.04985331  0.44506427    -0.04700
C1934       C  0.77097658  0.06848735  0.45918496    -0.32100
C1935       C  0.78812737  0.08299835  0.46724172     0.37200
C1936       C  0.81077157  0.07873842  0.46185716    -0.05000
C1937       C  0.81544068  0.05939827  0.44849813    -0.32000
C1938       C  0.79806861  0.04538094  0.43978102     0.37100
H1939       H  0.75372099  0.07296668  0.46247183     0.17400
O1940       O  0.78238022  0.10147567  0.48017484    -0.59500
H1941       H  0.83259636  0.05533772  0.44437441     0.17400
O1942       O  0.80316778  0.02786971  0.42535366    -0.59600
H1943       H  0.80397848  0.03498623  0.41039043     0.44400
H1944       H  0.77910751  0.11383826  0.46943457     0.44400
C1945       C  0.70782291  0.94147145  0.54590114    -0.04700
C1946       C  0.71105758  0.96333367  0.55513327    -0.32100
C1947       C  0.69454032  0.97315696  0.56854059     0.37200
C1948       C  0.67395958  0.96155185  0.57212716    -0.05000
C1949       C  0.66976646  0.94081446  0.56082843    -0.32000
C1950       C  0.68669934  0.93055890  0.54812257     0.37100
H1951       H  0.72729650  0.97177077  0.55393958     0.17400
O1952       O  0.69887081  0.99398583  0.57845563    -0.59500
H1953       H  0.65389289  0.93189875  0.56297361     0.17400
O1954       O  0.68323464  0.90888669  0.53973193    -0.59600
H1955       H  0.67758954  0.91109393  0.52430774     0.44400
H1956       H  0.70804402  0.99063286  0.59185133     0.44400
C1957       C  0.78081565  0.90699807  0.52221158    -0.04700
C1958       C  0.80285041  0.91216956  0.52949407    -0.32100
C1959       C  0.82063740  0.89689727  0.52556879     0.37200
C1960       C  0.81630801  0.87539296  0.51543439    -0.05000
C1961       C  0.79432668  0.87061372  0.50789443    -0.32000
C1962       C  0.77697465  0.88626537  0.51069792     0.37100
H1963       H  0.80601232  0.92748762  0.53940019     0.17400
O1964       O  0.84175070  0.90249306  0.53309032    -0.59500
H1965       H  0.79040027  0.85446480  0.49970127     0.17400
O1966       O  0.75572606  0.88028680  0.50375062    -0.59600
H1967       H  0.74954202  0.87041849  0.51573064     0.44400
H1968       H  0.84850081  0.91187018  0.52106834     0.44400
C1969       C  0.70836913  0.92983421  0.40896407    -0.04700
C1970       C  0.70996772  0.94437184  0.39067951    -0.32100
C1971       C  0.69230681  0.94609724  0.37557103     0.37200
C1972       C  0.67110328  0.93604995  0.38009439    -0.05000
C1973       C  0.66852572  0.92368743  0.40000053    -0.32000
C1974       C  0.68734584  0.91956701  0.41379178     0.37100
H1975       H  0.72614409  0.95158534  0.38610791     0.17400
O1976       O  0.69639362  0.95699169  0.35579060    -0.59500
H1977       H  0.65246769  0.91591714  0.40397966     0.17400
O1978       O  0.68543387  0.90436001  0.43102383    -0.59600
H1979       H  0.68868968  0.88915698  0.42431396     0.44400
H1980       H  0.70365425  0.94543798  0.34608955     0.44400
C1981       C  0.78119072  0.90206241  0.43849758    -0.04700
C1982       C  0.80370773  0.90820877  0.43475903    -0.32100
C1983       C  0.82113524  0.89318904  0.44021588     0.37200
C1984       C  0.81607444  0.87118252  0.44860048    -0.05000
C1985       C  0.79351280  0.86558214  0.45293703    -0.32000
C1986       C  0.77636161  0.88093456  0.44858464     0.37100
H1987       H  0.80769004  0.92405245  0.42629059     0.17400
O1988       O  0.84290443  0.89998689  0.43668114    -0.59500
H1989       H  0.78893980  0.84913072  0.45988703     0.17400
O1990       O  0.75453529  0.87426604  0.45227611    -0.59600
H1991       H  0.75049706  0.86390110  0.43962594     0.44400
H1992       H  0.84642716  0.89469004  0.42132645     0.44400
loop_ 
_geom_bond_atom_site_label_1 
_geom_bond_atom_site_label_2 
_geom_bond_distance 
_geom_bond_site_symmetry_2 
_ccdc_geom_bond_type 
N1            C5   1.368       .  A
N1            C2   1.368       .  A
N1           C41   1.455       .  S
C2            C3   1.380       .  A
C2         C1969   1.476       .  S
C3            C4   1.359       .  A
C3            H6   1.083       .  S
C4            C5   1.381       .  A
C4            H7   1.083       .  S
C5         C1981   1.474       .  S
N8           C12   1.374       .  A
N8            C9   1.367       .  A
N8           C40   1.456       .  S
C9           C10   1.378       .  A
C9         C1945   1.475       .  S
C10          C11   1.362       .  A
C10          H13   1.083       .  S
C11          C12   1.381       .  A
C11          H14   1.083       .  S
C12        C1957   1.484       .  S
N15          C19   1.374       .  A
N15          C16   1.372       .  A
N15          C39   1.461       .  S
C16          C17   1.381       .  A
C16        C1924   1.479       .  S
C17          C18   1.354       .  A
C17          H20   1.083       .  S
C18          C19   1.377       .  A
C18          H21   1.083       .  S
C19        C1933   1.477       .  S
N22          C26   1.367       .  A
N22          C23   1.372       .  A
N22          C42   1.453       .  S
C23          C24   1.382       .  A
C23        C1900   1.491       .  S
C24          C25   1.364       .  A
C24          H27   1.083       .  S
C25          C26   1.380       .  A
C25          H28   1.082       .  S
C26        C1909   1.494       .  S
O29         Ni37   1.946       .  S
O29          C39   1.285   1_565  A
O30         Ni37   1.934       .  S
O30          C40   1.282       .  A
O31         Ni37   1.945       .  S
O31          C41   1.287       .  A
O32         Ni37   1.937       .  S
O32          C42   1.284   1_565  A
O33         Ni38   1.932       .  S
O33          C42   1.283   1_565  A
O34         Ni38   1.937       .  S
O34          C41   1.284       .  A
O35         Ni38   1.951       .  S
O35          C40   1.290       .  A
O36         Ni38   1.955       .  S
O36          C39   1.288   1_565  A
Ni37        Ni38   2.377       .  S
N43          C47   1.371       .  A
N43          C44   1.371       .  A
N43          C82   1.454       .  S
C44          C45   1.380       .  A
C44        C1876   1.484       .  S
C45          C46   1.364       .  A
C45          H48   1.083       .  S
C46          C47   1.379       .  A
C46          H49   1.083       .  S
C47        C1885   1.484       .  S
N50          C54   1.366       .  A
N50          C51   1.364       .  A
N50          C83   1.454       .  S
C51          C52   1.385       .  A
C51        C1849   1.489       .  S
C52          C53   1.363       .  A
C52          H55   1.083       .  S
C53          C54   1.378       .  A
C53          H56   1.082       .  S
C54        C1861   1.483       .  S
N57          C61   1.365       .  A
N57          C58   1.367       .  A
N57          C84   1.455       .  S
C58          C59   1.385       .  A
C58        C1825   1.494       .  S
C59          C60   1.365       .  A
C59          H62   1.083       .  S
C60          C61   1.378       .  A
C60          H63   1.083       .  S
C61        C1837   1.480       .  S
N64          C68   1.371       .  A
N64          C65   1.370       .  A
N64          C81   1.454       .  S
C65          C66   1.380       .  A
C65        C1804   1.487       .  S
C66          C67   1.364       .  A
C66          H69   1.083       .  S
C67          C68   1.383       .  A
C67          H70   1.083       .  S
C68        C1813   1.496       .  S
O71         Ni79   1.934   1_455  S
O71          C81   1.282       .  A
O72         Ni79   1.935       .  S
O72          C82   1.284       .  A
O73         Ni79   1.926       .  S
O73          C83   1.285       .  A
O74         Ni79   1.938   1_455  S
O74          C84   1.286       .  A
O75         Ni80   1.937   1_455  S
O75          C84   1.282       .  A
O76         Ni80   1.942       .  S
O76          C83   1.285       .  A
O77         Ni80   1.951       .  S
O77          C82   1.287       .  A
O78         Ni80   1.938   1_455  S
O78          C81   1.286       .  A
Ni79        Ni80   2.378       .  S
N85          C89   1.370       .  A
N85          C86   1.369       .  A
N85         C123   1.457       .  S
C86          C87   1.380       .  A
C86        C1789   1.479       .  S
C87          C88   1.356       .  A
C87          H90   1.083       .  S
C88          C89   1.380       .  A
C88          H91   1.083       .  S
C89        C1777   1.473       .  S
N92          C96   1.369       .  A
N92          C93   1.372       .  A
N92         C125   1.454       .  S
C93          C94   1.384       .  A
C93        C1765   1.502       .  S
C94          C95   1.365       .  A
C94          H97   1.082       .  S
C95          C96   1.379       .  A
C95          H98   1.083       .  S
C96        C1753   1.487       .  S
N99         C103   1.372       .  A
N99         C100   1.376       .  A
N99         C126   1.459   1_545  S
C100        C101   1.382       .  A
C100       C1729   1.487       .  S
C101        C102   1.357       .  A
C101        H104   1.083       .  S
C102        C103   1.378       .  A
C102        H105   1.083       .  S
C103       C1741   1.480       .  S
N106        C110   1.371       .  A
N106        C107   1.373       .  A
N106        C124   1.458   1_545  S
C107        C108   1.382       .  A
C107       C1708   1.485   1_545  S
C108        C109   1.356       .  A
C108        H111   1.083       .  S
C109        C110   1.379       .  A
C109        H112   1.083       .  S
C110       C1720   1.474       .  S
O113       Ni121   1.940       .  S
O113        C123   1.286       .  A
O114       Ni121   1.948       .  S
O114        C124   1.286       .  A
O115       Ni121   1.938       .  S
O115        C125   1.286       .  A
O116       Ni121   1.952       .  S
O116        C126   1.287       .  A
O117       Ni122   1.944       .  S
O117        C126   1.286       .  A
O118       Ni122   1.932       .  S
O118        C125   1.281       .  A
O119       Ni122   1.940       .  S
O119        C124   1.286       .  A
O120       Ni122   1.949       .  S
O120        C123   1.287       .  A
Ni121      Ni122   2.377       .  S
N127        C131   1.367       .  A
N127        C128   1.371       .  A
N127        C168   1.455       .  S
C128        C129   1.380       .  A
C128       C1681   1.480       .  S
C129        C130   1.361       .  A
C129        H132   1.083       .  S
C130        C131   1.379       .  A
C130        H133   1.083       .  S
C131       C1693   1.475       .  S
N134        C138   1.364       .  A
N134        C135   1.367       .  A
N134        C165   1.451       .  S
C135        C136   1.380       .  A
C135       C1669   1.479       .  S
C136        C137   1.365       .  A
C136        H139   1.083       .  S
C137        C138   1.382       .  A
C137        H140   1.083       .  S
C138       C1657   1.486       .  S
N141        C145   1.372       .  A
N141        C142   1.375       .  A
N141        C166   1.460       .  S
C142        C143   1.378       .  A
C142       C1645   1.482       .  S
C143        C144   1.358       .  A
C143        H146   1.083       .  S
C144        C145   1.381       .  A
C144        H147   1.083       .  S
C145       C1633   1.480       .  S
N148        C152   1.369       .  A
N148        C149   1.371       .  A
N148        C167   1.452       .  S
C149        C150   1.387       .  A
C149       C1624   1.504       .  S
C150        C151   1.367       .  A
C150        H153   1.083       .  S
C151        C152   1.377       .  A
C151        H154   1.083       .  S
C152       C1609   1.491       .  S
O155       Ni163   1.920       .  S
O155        C165   1.282       .  A
O156       Ni163   1.947       .  S
O156        C166   1.286   1_565  A
O157       Ni163   1.940       .  S
O157        C167   1.282   1_565  A
O158       Ni163   1.950       .  S
O158        C168   1.289       .  A
O159       Ni164   1.932       .  S
O159        C168   1.282       .  A
O160       Ni164   1.927       .  S
O160        C167   1.283   1_565  A
O161       Ni164   1.950       .  S
O161        C166   1.288   1_565  A
O162       Ni164   1.939       .  S
O162        C165   1.285       .  A
Ni163      Ni164   2.377       .  S
N169        C173   1.367       .  A
N169        C170   1.366       .  A
N169        C210   1.454       .  S
C170        C171   1.381       .  A
C170       C1597   1.469       .  S
C171        C172   1.357       .  A
C171        H174   1.083       .  S
C172        C173   1.380       .  A
C172        H175   1.083       .  S
C173       C1585   1.471       .  S
N176        C180   1.373       .  A
N176        C177   1.372       .  A
N176        C207   1.459       .  S
C177        C178   1.382       .  A
C177       C1573   1.485       .  S
C178        C179   1.364       .  A
C178        H181   1.083       .  S
C179        C180   1.380       .  A
C179        H182   1.083       .  S
C180       C1561   1.494       .  S
N183        C187   1.372       .  A
N183        C184   1.371       .  A
N183        C208   1.458       .  S
C184        C185   1.379       .  A
C184       C1552   1.480       .  S
C185        C186   1.359       .  A
C185        H188   1.083       .  S
C186        C187   1.380       .  A
C186        H189   1.083       .  S
C187       C1540   1.481       .  S
N190        C194   1.368       .  A
N190        C191   1.371       .  A
N190        C209   1.455       .  S
C191        C192   1.385       .  A
C191       C1525   1.501       .  S
C192        C193   1.365       .  A
C192        H195   1.083       .  S
C193        C194   1.378       .  A
C193        H196   1.083       .  S
C194       C1513   1.487       .  S
O197       Ni205   1.941       .  S
O197        C207   1.287       .  A
O198       Ni205   1.955   1_554  S
O198        C208   1.288       .  A
O199       Ni205   1.930   1_554  S
O199        C209   1.279       .  A
O200       Ni205   1.935       .  S
O200        C210   1.285       .  A
O201       Ni206   1.945       .  S
O201        C210   1.286       .  A
O202       Ni206   1.946       .  S
O202        C209   1.288   1_556  A
O203       Ni206   1.938       .  S
O203        C208   1.285   1_556  A
O204       Ni206   1.946       .  S
O204        C207   1.285       .  A
Ni205      Ni206   2.376       .  S
N211        C215   1.372       .  A
N211        C212   1.368       .  A
N211        C251   1.453       .  S
C212        C213   1.378       .  A
C212       C1489   1.487       .  S
C213        C214   1.365       .  A
C213        H216   1.083       .  S
C214        C215   1.384       .  A
C214        H217   1.083       .  S
C215       C1501   1.502       .  S
N218        C222   1.368       .  A
N218        C219   1.369       .  A
N218        C249   1.456       .  S
C219        C220   1.380       .  A
C219       C1477   1.475       .  S
C220        C221   1.361       .  A
C220        H223   1.083       .  S
C221        C222   1.379       .  A
C221        H224   1.083       .  S
C222       C1468   1.474       .  S
N225        C229   1.368       .  A
N225        C226   1.370       .  A
N225        C250   1.454       .  S
C226        C227   1.381       .  A
C226       C1441   1.481       .  S
C227        C228   1.363       .  A
C227        H230   1.083       .  S
C228        C229   1.379       .  A
C228        H231   1.083       .  S
C229       C1456   1.480       .  S
N232        C236   1.366       .  A
N232        C233   1.366       .  A
N232        C252   1.453       .  S
C233        C234   1.378       .  A
C233       C1429   1.480       .  S
C234        C235   1.365       .  A
C234        H237   1.083       .  S
C235        C236   1.384       .  A
C235        H238   1.083       .  S
C236       C1417   1.494       .  S
O239       Ni247   1.947       .  S
O239        C249   1.286       .  A
O240       Ni247   1.938       .  S
O240        C250   1.285   1_565  A
O241       Ni247   1.934       .  S
O241        C251   1.280       .  A
O242       Ni247   1.929       .  S
O242        C252   1.285   1_565  A
O243       Ni248   1.938       .  S
O243        C252   1.284   1_565  A
O244       Ni248   1.935       .  S
O244        C251   1.286       .  A
O245       Ni248   1.941       .  S
O245        C250   1.285   1_565  A
O246       Ni248   1.939       .  S
O246        C249   1.285       .  A
Ni247      Ni248   2.378       .  S
N253        C257   1.371       .  A
N253        C254   1.372       .  A
N253        C291   1.456       .  S
C254        C255   1.381       .  A
C254       C1393   1.483       .  S
C255        C256   1.359       .  A
C255        H258   1.083       .  S
C256        C257   1.379       .  A
C256        H259   1.083       .  S
C257       C1405   1.478       .  S
N260        C264   1.369       .  A
N260        C261   1.372       .  A
N260        C294   1.456       .  S
C261        C262   1.384       .  A
C261       C1369   1.502       .  S
C262        C263   1.364       .  A
C262        H265   1.083       .  S
C263        C264   1.380       .  A
C263        H266   1.083       .  S
C264       C1381   1.491       .  S
N267        C271   1.369       .  A
N267        C268   1.369       .  A
N267        C293   1.453       .  S
C268        C269   1.379       .  A
C268       C1345   1.473       .  S
C269        C270   1.358       .  A
C269        H272   1.083       .  S
C270        C271   1.381       .  A
C270        H273   1.083       .  S
C271       C1360   1.478       .  S
N274        C278   1.370       .  A
N274        C275   1.364       .  A
N274        C292   1.453       .  S
C275        C276   1.379       .  A
C275       C1321   1.483       .  S
C276        C277   1.367       .  A
C276        H279   1.082       .  S
C277        C278   1.385       .  A
C277        H280   1.082       .  S
C278       C1336   1.502       .  S
O281       Ni289   1.938       .  S
O281        C291   1.285       .  A
O282       Ni289   1.924   1_554  S
O282        C292   1.278       .  A
O283       Ni289   1.952   1_554  S
O283        C293   1.288       .  A
O284       Ni289   1.944       .  S
O284        C294   1.289       .  A
O285       Ni290   1.935       .  S
O285        C294   1.281       .  A
O286       Ni290   1.924   1_554  S
O286        C293   1.282       .  A
O287       Ni290   1.944   1_554  S
O287        C292   1.289       .  A
O288       Ni290   1.951       .  S
O288        C291   1.287       .  A
Ni289      Ni290   2.378       .  S
N295        C299   1.369       .  A
N295        C296   1.371       .  A
N295        C335   1.456       .  S
C296        C297   1.379       .  A
C296       C1297   1.482       .  S
C297        C298   1.363       .  A
C297        H300   1.083       .  S
C298        C299   1.380       .  A
C298        H301   1.083       .  S
C299       C1312   1.477       .  S
N302        C306   1.369       .  A
N302        C303   1.366       .  A
N302        C334   1.450       .  S
C303        C304   1.379       .  A
C303       C1273   1.493       .  S
C304        C305   1.368       .  A
C304        H307   1.082       .  S
C305        C306   1.386       .  A
C305        H308   1.083       .  S
C306       C1288   1.503       .  S
N309        C313   1.366       .  A
N309        C310   1.360       .  A
N309        C333   1.448   1_554  S
C310        C311   1.383       .  A
C310       C1252   1.489       .  S
C311        C312   1.369       .  A
C311        H314   1.082       .  S
C312        C313   1.380       .  A
C312        H315   1.082       .  S
C313       C1261   1.489       .  S
N316        C320   1.366       .  A
N316        C317   1.367       .  A
N316        C336   1.452       .  S
C317        C318   1.378       .  A
C317       C1225   1.484       .  S
C318        C319   1.365       .  A
C318        H321   1.082       .  S
C319        C320   1.386       .  A
C319        H322   1.083       .  S
C320       C1240   1.490       .  S
O323       Ni331   1.924       .  S
O323        C333   1.282       .  A
O324       Ni331   1.929       .  S
O324        C334   1.279       .  A
O325       Ni331   1.956       .  S
O325        C335   1.289       .  A
O326       Ni331   1.948       .  S
O326        C336   1.286   1_556  A
O327       Ni332   1.916       .  S
O327        C336   1.282   1_556  A
O328       Ni332   1.928       .  S
O328        C335   1.282       .  A
O329       Ni332   1.933       .  S
O329        C334   1.287       .  A
O330       Ni332   1.932       .  S
O330        C333   1.283       .  A
Ni331      Ni332   2.378       .  S
N337        C341   1.369       .  A
N337        C338   1.366       .  A
N337        C378   1.455       .  S
C338        C339   1.379       .  A
C338       C1201   1.467       .  S
C339        C340   1.359       .  A
C339        H342   1.083       .  S
C340        C341   1.381       .  A
C340        H343   1.083       .  S
C341       C1213   1.477       .  S
N344        C348   1.373       .  A
N344        C345   1.369       .  A
N344        C375   1.453       .  S
C345        C346   1.379       .  A
C345       C1189   1.495       .  S
C346        C347   1.361       .  A
C346        H349   1.081       .  S
C347        C348   1.383       .  A
C347        H350   1.083       .  S
C348       C1177   1.492       .  S
N351        C355   1.373       .  A
N351        C352   1.371       .  A
N351        C376   1.460       .  S
C352        C353   1.379       .  A
C352       C1165   1.475       .  S
C353        C354   1.357       .  A
C353        H356   1.083       .  S
C354        C355   1.380       .  A
C354        H357   1.083       .  S
C355       C1153   1.479       .  S
N358        C362   1.367       .  A
N358        C359   1.372       .  A
N358        C377   1.452       .  S
C359        C360   1.383       .  A
C359       C1144   1.483       .  S
C360        C361   1.360       .  A
C360        H363   1.083       .  S
C361        C362   1.378       .  A
C361        H364   1.083       .  S
C362       C1129   1.478       .  S
O365       Ni373   1.932       .  S
O365        C375   1.281       .  A
O366       Ni373   1.951   1_455  S
O366        C376   1.287       .  A
O367       Ni373   1.930   1_455  S
O367        C377   1.282       .  A
O368       Ni373   1.943       .  S
O368        C378   1.285       .  A
O369       Ni374   1.938       .  S
O369        C378   1.286       .  A
O370       Ni374   1.942   1_455  S
O370        C377   1.287       .  A
O371       Ni374   1.949   1_455  S
O371        C376   1.287       .  A
O372       Ni374   1.935       .  S
O372        C375   1.282       .  A
Ni373      Ni374   2.377       .  S
N379        C383   1.372       .  A
N379        C380   1.368       .  A
N379        C418   1.456       .  S
C380        C381   1.377       .  A
C380       C1117   1.476       .  S
C381        C382   1.360       .  A
C381        H384   1.083       .  S
C382        C383   1.382       .  A
C382        H385   1.083       .  S
C383       C1105   1.483       .  S
N386        C390   1.370       .  A
N386        C387   1.369       .  A
N386        C419   1.453       .  S
C387        C388   1.378       .  A
C387       C1093   1.484       .  S
C388        C389   1.364       .  A
C388        H391   1.083       .  S
C389        C390   1.383       .  A
C389        H392   1.083       .  S
C390       C1081   1.498       .  S
N393        C397   1.369       .  A
N393        C394   1.372       .  A
N393        C420   1.459       .  S
C394        C395   1.381       .  A
C394       C1069   1.478       .  S
C395        C396   1.356       .  A
C395        H398   1.083       .  S
C396        C397   1.379       .  A
C396        H399   1.083       .  S
C397       C1057   1.472       .  S
N400        C404   1.376       .  A
N400        C401   1.372       .  A
N400        C417   1.456       .  S
C401        C402   1.378       .  A
C401       C1048   1.480       .  S
C402        C403   1.360       .  A
C402        H405   1.083       .  S
C403        C404   1.383       .  A
C403        H406   1.083       .  S
C404       C1033   1.494       .  S
O407       Ni415   1.941       .  S
O407        C417   1.287   1_556  A
O408       Ni415   1.946       .  S
O408        C418   1.288       .  A
O409       Ni415   1.926       .  S
O409        C419   1.283       .  A
O410       Ni415   1.941       .  S
O410        C420   1.285   1_556  A
O411       Ni416   1.952       .  S
O411        C420   1.288   1_556  A
O412       Ni416   1.938       .  S
O412        C419   1.283       .  A
O413       Ni416   1.941       .  S
O413        C418   1.284       .  A
O414       Ni416   1.944   1_554  S
O414        C417   1.285       .  A
Ni415      Ni416   2.377       .  S
N421        C425   1.371       .  A
N421        C422   1.370       .  A
N421        C461   1.455       .  S
C422        C423   1.386       .  A
C422       C1012   1.502       .  S
C423        C424   1.365       .  A
C423        H426   1.083       .  S
C424        C425   1.377       .  A
C424        H427   1.083       .  S
C425       C1021   1.492       .  S
N428        C432   1.373       .  A
N428        C429   1.367       .  A
N428        C459   1.458       .  S
C429        C430   1.379       .  A
C429        C997   1.475       .  S
C430        C431   1.360       .  A
C430        H433   1.083       .  S
C431        C432   1.379       .  A
C431        H434   1.083       .  S
C432        C988   1.477       .  S
N435        C439   1.368       .  A
N435        C436   1.371       .  A
N435        C460   1.457       .  S
C436        C437   1.380       .  A
C436        C961   1.479       .  S
C437        C438   1.360       .  A
C437        H440   1.083       .  S
C438        C439   1.380       .  A
C438        H441   1.083       .  S
C439        C976   1.478       .  S
N442        C446   1.371       .  A
N442        C443   1.368       .  A
N442        C462   1.449       .  S
C443        C444   1.377       .  A
C443        C949   1.486       .  S
C444        C445   1.368       .  A
C444        H447   1.082       .  S
C445        C446   1.386       .  A
C445        H448   1.083       .  S
C446        C940   1.504       .  S
O449       Ni457   1.934   1_655  S
O449        C459   1.286       .  A
O450       Ni457   1.939       .  S
O450        C460   1.285       .  A
O451       Ni457   1.929   1_655  S
O451        C461   1.285       .  A
O452       Ni457   1.924       .  S
O452        C462   1.283       .  A
O453       Ni458   1.933       .  S
O453        C462   1.280       .  A
O454       Ni458   1.944   1_655  S
O454        C461   1.284       .  A
O455       Ni458   1.947       .  S
O455        C460   1.286       .  A
O456       Ni458   1.956   1_655  S
O456        C459   1.286       .  A
Ni457      Ni458   2.375       .  S
N463        C467   1.369       .  A
N463        C464   1.373       .  A
N463        C501   1.456       .  S
C464        C465   1.380       .  A
C464        C913   1.481       .  S
C465        C466   1.361       .  A
C465        H468   1.083       .  S
C466        C467   1.379       .  A
C466        H469   1.083       .  S
C467        C925   1.480       .  S
N470        C474   1.367       .  A
N470        C471   1.365       .  A
N470        C503   1.455       .  S
C471        C472   1.380       .  A
C471        C889   1.476       .  S
C472        C473   1.363       .  A
C472        H475   1.083       .  S
C473        C474   1.382       .  A
C473        H476   1.082       .  S
C474        C901   1.494       .  S
N477        C481   1.374       .  A
N477        C478   1.373       .  A
N477        C504   1.459       .  S
C478        C479   1.381       .  A
C478        C868   1.483       .  S
C479        C480   1.354       .  A
C479        H482   1.083       .  S
C480        C481   1.380       .  A
C480        H483   1.083       .  S
C481        C877   1.481       .  S
N484        C488   1.369       .  A
N484        C485   1.366       .  A
N484        C502   1.453       .  S
C485        C486   1.379       .  A
C485        C841   1.474       .  S
C486        C487   1.361       .  A
C486        H489   1.083       .  S
C487        C488   1.381       .  A
C487        H490   1.083       .  S
C488        C853   1.476       .  S
O491       Ni499   1.948       .  S
O491        C501   1.288       .  A
O492       Ni499   1.940   1_455  S
O492        C502   1.284       .  A
O493       Ni499   1.929       .  S
O493        C503   1.280       .  A
O494       Ni499   1.941   1_455  S
O494        C504   1.285       .  A
O495       Ni500   1.955   1_455  S
O495        C504   1.288       .  A
O496       Ni500   1.943       .  S
O496        C503   1.288       .  A
O497       Ni500   1.937   1_455  S
O497        C502   1.285       .  A
O498       Ni500   1.936       .  S
O498        C501   1.283       .  A
Ni499      Ni500   2.378       .  S
O505       Ni513   1.916   1_455  S
O505        C515   1.282       .  A
O506       Ni513   1.913       .  S
O506        C516   1.282       .  A
O507       Ni513   1.911       .  S
O507        C517   1.280       .  A
O508       Ni513   1.910   1_455  S
O508        C518   1.281       .  A
O509       Ni514   1.941   1_455  S
O509        C518   1.285       .  A
O510       Ni514   1.940       .  S
O510        C517   1.287       .  A
O511       Ni514   1.933       .  S
O511        C516   1.284       .  A
O512       Ni514   1.930   1_455  S
O512        C515   1.284       .  A
Ni513      Ni514   2.382       .  S
C515        C964   1.492       .  S
C516        C916   1.494       .  S
C517       C1009   1.491       .  S
C518        C865   1.501       .  S
O519       Ni527   1.928       .  S
O519        C529   1.284       .  A
O520       Ni527   1.926       .  S
O520        C530   1.284       .  A
O521       Ni527   1.932       .  S
O521        C531   1.284       .  A
O522       Ni527   1.931       .  S
O522        C532   1.285       .  A
O523       Ni528   1.907       .  S
O523        C532   1.279       .  A
O524       Ni528   1.915       .  S
O524        C531   1.282       .  A
O525       Ni528   1.920       .  S
O525        C530   1.283       .  A
O526       Ni528   1.911       .  S
O526        C529   1.281       .  A
Ni527      Ni528   2.384       .  S
C529        C904   1.485       .  S
C530       C1936   1.497       .  S
C531        C928   1.494       .  S
C532       C1912   1.485       .  S
O533       Ni541   1.935       .  S
O533        C543   1.286       .  A
O534       Ni541   1.930       .  S
O534        C544   1.284       .  A
O535       Ni541   1.938       .  S
O535        C545   1.285       .  A
O536       Ni541   1.942       .  S
O536        C546   1.287       .  A
O537       Ni542   1.905       .  S
O537        C546   1.280       .  A
O538       Ni542   1.903       .  S
O538        C545   1.279       .  A
O539       Ni542   1.904       .  S
O539        C544   1.280       .  A
O540       Ni542   1.905       .  S
O540        C543   1.280       .  A
Ni541      Ni542   2.383       .  S
C543        C880   1.499       .  S
C544       C1717   1.491       .  S
C545        C856   1.486       .  S
C546       C1744   1.500       .  S
O547       Ni555   1.904       .  S
O547        C557   1.280       .  A
O548       Ni555   1.907       .  S
O548        C558   1.280       .  A
O549       Ni555   1.911       .  S
O549        C559   1.281       .  A
O550       Ni555   1.911       .  S
O550        C560   1.282       .  A
O551       Ni556   1.936       .  S
O551        C560   1.285       .  A
O552       Ni556   1.941       .  S
O552        C559   1.287       .  A
O553       Ni556   1.932       .  S
O553        C558   1.285       .  A
O554       Ni556   1.926       .  S
O554        C557   1.283       .  A
Ni555      Ni556   2.384       .  S
C557       C1000   1.480       .  S
C558       C1072   1.497       .  S
C559       C1024   1.503       .  S
C560       C1045   1.495       .  S
O561       Ni569   1.901       .  S
O561        C571   1.280       .  A
O562       Ni569   1.901       .  S
O562        C572   1.277       .  A
O563       Ni569   1.912       .  S
O563        C573   1.282       .  A
O564       Ni569   1.919       .  S
O564        C574   1.282       .  A
O565       Ni570   1.936       .  S
O565        C574   1.286       .  A
O566       Ni570   1.939       .  S
O566        C573   1.285       .  A
O567       Ni570   1.933       .  S
O567        C572   1.285       .  A
O568       Ni570   1.936       .  S
O568        C571   1.284       .  A
Ni569      Ni570   2.383       .  S
C571        C973   1.488       .  S
C572       C1237   1.477       .  S
C573        C952   1.496       .  S
C574       C1264   1.501       .  S
O575       Ni583   1.931       .  S
O575        C585   1.285       .  A
O576       Ni583   1.942       .  S
O576        C586   1.287       .  A
O577       Ni583   1.938       .  S
O577        C587   1.286       .  A
O578       Ni583   1.927       .  S
O578        C588   1.282       .  A
O579       Ni584   1.908       .  S
O579        C588   1.281       .  A
O580       Ni584   1.911       .  S
O580        C587   1.279       .  A
O581       Ni584   1.907       .  S
O581        C586   1.281       .  A
O582       Ni584   1.910       .  S
O582        C585   1.280       .  A
Ni583      Ni584   2.385       .  S
C585       C1324   1.491   1_556  S
C586       C1108   1.503       .  S
C587       C1372   1.487       .  S
C588       C1060   1.484   1_556  S
O589       Ni597   1.922       .  S
O589        C599   1.282       .  A
O590       Ni597   1.915       .  S
O590        C600   1.281       .  A
O591       Ni597   1.942       .  S
O591        C601   1.286       .  A
O592       Ni597   1.944       .  S
O592        C602   1.288       .  A
O593       Ni598   1.895       .  S
O593        C602   1.277       .  A
O594       Ni598   1.905       .  S
O594        C601   1.279       .  A
O595       Ni598   1.922       .  S
O595        C600   1.283       .  A
O596       Ni598   1.919       .  S
O596        C599   1.282       .  A
Ni597      Ni598   2.382       .  S
C599       C1192   1.482       .  S
C600       C1120   1.488       .  S
C601       C1216   1.496       .  S
C602       C1096   1.499       .  S
O603       Ni611   1.925   1_455  S
O603        C613   1.283       .  A
O604       Ni611   1.922       .  S
O604        C614   1.282       .  A
O605       Ni611   1.927       .  S
O605        C615   1.284       .  A
O606       Ni611   1.933   1_455  S
O606        C616   1.284       .  A
O607       Ni612   1.904   1_455  S
O607        C616   1.279       .  A
O608       Ni612   1.895       .  S
O608        C615   1.277       .  A
O609       Ni612   1.908       .  S
O609        C614   1.282       .  A
O610       Ni612   1.916   1_455  S
O610        C613   1.283       .  A
Ni611      Ni612   2.385       .  S
C613       C1156   1.496       .  S
C614        C892   1.489       .  S
C615       C1204   1.482       .  S
C616        C844   1.486       .  S
O617       Ni625   1.930       .  S
O617        C627   1.283       .  A
O618       Ni625   1.936       .  S
O618        C628   1.286       .  A
O619       Ni625   1.946       .  S
O619        C629   1.288       .  A
O620       Ni625   1.939       .  S
O620        C630   1.286       .  A
O621       Ni626   1.904       .  S
O621        C630   1.279       .  A
O622       Ni626   1.895       .  S
O622        C629   1.277       .  A
O623       Ni626   1.911       .  S
O623        C628   1.280       .  A
O624       Ni626   1.913       .  S
O624        C627   1.282       .  A
Ni625      Ni626   2.383       .  S
C627       C1168   1.491       .  S
C628       C1285   1.487       .  S
C629       C1141   1.500       .  S
C630       C1309   1.494       .  S
O631       Ni639   1.908       .  S
O631        C641   1.280       .  A
O632       Ni639   1.890   1_554  S
O632        C642   1.276       .  A
O633       Ni639   1.900   1_554  S
O633        C643   1.278       .  A
O634       Ni639   1.915       .  S
O634        C644   1.283       .  A
O635       Ni640   1.933       .  S
O635        C644   1.284       .  A
O636       Ni640   1.933       .  S
O636        C643   1.284   1_556  A
O637       Ni640   1.939       .  S
O637        C642   1.286   1_556  A
O638       Ni640   1.942       .  S
O638        C641   1.287       .  A
Ni639      Ni640   2.384       .  S
C641       C1300   1.499       .  S
C642       C1348   1.492       .  S
C643       C1249   1.476       .  S
C644       C1396   1.499       .  S
O645       Ni653   1.914       .  S
O645        C655   1.281       .  A
O646       Ni653   1.915       .  S
O646        C656   1.282       .  A
O647       Ni653   1.912       .  S
O647        C657   1.281       .  A
O648       Ni653   1.912       .  S
O648        C658   1.281       .  A
O649       Ni654   1.929       .  S
O649        C658   1.284       .  A
O650       Ni654   1.928       .  S
O650        C657   1.285       .  A
O651       Ni654   1.929       .  S
O651        C656   1.284       .  A
O652       Ni654   1.932       .  S
O652        C655   1.283       .  A
Ni653      Ni654   2.384       .  S
C655       C1453   1.483       .  S
C656       C1384   1.493       .  S
C657       C1432   1.495       .  S
C658       C1408   1.495       .  S
O659       Ni667   1.935       .  S
O659        C669   1.285       .  A
O660       Ni667   1.936       .  S
O660        C670   1.286       .  A
O661       Ni667   1.931       .  S
O661        C671   1.284       .  A
O662       Ni667   1.926       .  S
O662        C672   1.283       .  A
O663       Ni668   1.915       .  S
O663        C672   1.282       .  A
O664       Ni668   1.910       .  S
O664        C671   1.280       .  A
O665       Ni668   1.914       .  S
O665        C670   1.281       .  A
O666       Ni668   1.922       .  S
O666        C669   1.283       .  A
Ni667      Ni668   2.384       .  S
C669       C1648   1.501       .  S
C670       C1333   1.492       .  S
C671       C1621   1.482       .  S
C672       C1357   1.495       .  S
O673       Ni681   1.914       .  S
O673        C683   1.281       .  A
O674       Ni681   1.921       .  S
O674        C684   1.283       .  A
O675       Ni681   1.912       .  S
O675        C685   1.281       .  A
O676       Ni681   1.908       .  S
O676        C686   1.281       .  A
O677       Ni682   1.939       .  S
O677        C686   1.285       .  A
O678       Ni682   1.937       .  S
O678        C685   1.286       .  A
O679       Ni682   1.933       .  S
O679        C684   1.285       .  A
O680       Ni682   1.933       .  S
O680        C683   1.285       .  A
Ni681      Ni682   2.381       .  S
C683       C1444   1.494       .  S
C684       C1756   1.502       .  S
C685       C1492   1.502       .  S
C686       C1705   1.498       .  S
O687       Ni695   1.901       .  S
O687        C697   1.279       .  A
O688       Ni695   1.891       .  S
O688        C698   1.276       .  A
O689       Ni695   1.915       .  S
O689        C699   1.280       .  A
O690       Ni695   1.921       .  S
O690        C700   1.283       .  A
O691       Ni696   1.933       .  S
O691        C700   1.285       .  A
O692       Ni696   1.932       .  S
O692        C699   1.285       .  A
O693       Ni696   1.937       .  S
O693        C698   1.285       .  A
O694       Ni696   1.937       .  S
O694        C697   1.286       .  A
Ni695      Ni696   2.383       .  S
C697       C1480   1.493       .  S
C698       C1600   1.487       .  S
C699       C1504   1.484       .  S
C700       C1576   1.502       .  S
O701       Ni709   1.935       .  S
O701        C711   1.285       .  A
O702       Ni709   1.933       .  S
O702        C712   1.285       .  A
O703       Ni709   1.930       .  S
O703        C713   1.285       .  A
O704       Ni709   1.927       .  S
O704        C714   1.282       .  A
O705       Ni710   1.904       .  S
O705        C714   1.281       .  A
O706       Ni710   1.907       .  S
O706        C713   1.279       .  A
O707       Ni710   1.919       .  S
O707        C712   1.283       .  A
O708       Ni710   1.916       .  S
O708        C711   1.282       .  A
Ni709      Ni710   2.384       .  S
C711       C1276   1.494       .  S
C712       C1537   1.501   1_556  S
C713       C1228   1.491   1_556  S
C714       C1588   1.484       .  S
O715       Ni723   1.940       .  S
O715        C725   1.287       .  A
O716       Ni723   1.941       .  S
O716        C726   1.286       .  A
O717       Ni723   1.921       .  S
O717        C727   1.281       .  A
O718       Ni723   1.922       .  S
O718        C728   1.282       .  A
O719       Ni724   1.920       .  S
O719        C728   1.282       .  A
O720       Ni724   1.922       .  S
O720        C727   1.283       .  A
O721       Ni724   1.906       .  S
O721        C726   1.280       .  A
O722       Ni724   1.896       .  S
O722        C725   1.277       .  A
Ni723      Ni724   2.383       .  S
C725       C1672   1.495       .  S
C726       C1549   1.494       .  S
C727       C1696   1.488       .  S
C728       C1528   1.482       .  S
O729       Ni737   1.932       .  S
O729        C739   1.285       .  A
O730       Ni737   1.922       .  S
O730        C740   1.283       .  A
O731       Ni737   1.936       .  S
O731        C741   1.285       .  A
O732       Ni737   1.943       .  S
O732        C742   1.287       .  A
O733       Ni738   1.911       .  S
O733        C742   1.281       .  A
O734       Ni738   1.912       .  S
O734        C741   1.281       .  A
O735       Ni738   1.911       .  S
O735        C740   1.281       .  A
O736       Ni738   1.910       .  S
O736        C739   1.281       .  A
Ni737      Ni738   2.382       .  S
C739       C1636   1.500   1_565  S
C740       C1780   1.493       .  S
C741       C1684   1.490       .  S
C742       C1732   1.506       .  S
O743       Ni751   1.915       .  S
O743        C753   1.281       .  A
O744       Ni751   1.921       .  S
O744        C754   1.283       .  A
O745       Ni751   1.903       .  S
O745        C755   1.280       .  A
O746       Ni751   1.902       .  S
O746        C756   1.277       .  A
O747       Ni752   1.943       .  S
O747        C756   1.286       .  A
O748       Ni752   1.936       .  S
O748        C755   1.285       .  A
O749       Ni752   1.924       .  S
O749        C754   1.283       .  A
O750       Ni752   1.931       .  S
O750        C753   1.284       .  A
Ni751      Ni752   2.384       .  S
C753       C1768   1.486       .  S
C754       C1840   1.495       .  S
C755       C1792   1.492       .  S
C756       C1816   1.479       .  S
O757       Ni765   1.932   1_655  S
O757        C767   1.285       .  A
O758       Ni765   1.931       .  S
O758        C768   1.285       .  A
O759       Ni765   1.928       .  S
O759        C769   1.284       .  A
O760       Ni765   1.930   1_655  S
O760        C770   1.284       .  A
O761       Ni766   1.919       .  S
O761        C770   1.282   1_455  A
O762       Ni766   1.907       .  S
O762        C769   1.279       .  A
O763       Ni766   1.913       .  S
O763        C768   1.280       .  A
O764       Ni766   1.926       .  S
O764        C767   1.284   1_455  A
Ni765      Ni766   2.385       .  S
C767       C1873   1.504       .  S
C768        C937   1.484       .  S
C769       C1828   1.480       .  S
C770        C985   1.494       .  S
O771       Ni779   1.942       .  S
O771        C781   1.286       .  A
O772       Ni779   1.943       .  S
O772        C782   1.287       .  A
O773       Ni779   1.924       .  S
O773        C783   1.283       .  A
O774       Ni779   1.926       .  S
O774        C784   1.283       .  A
O775       Ni780   1.908       .  S
O775        C784   1.281       .  A
O776       Ni780   1.907       .  S
O776        C783   1.282       .  A
O777       Ni780   1.913       .  S
O777        C782   1.281       .  A
O778       Ni780   1.912       .  S
O778        C781   1.282       .  A
Ni779      Ni780   2.383       .  S
C781       C1960   1.498       .  S
C782       C1888   1.501       .  S
C783       C1984   1.490       .  S
C784       C1864   1.488       .  S
O785       Ni793   1.900       .  S
O785        C795   1.278       .  A
O786       Ni793   1.914       .  S
O786        C796   1.281       .  A
O787       Ni793   1.915       .  S
O787        C797   1.283       .  A
O788       Ni793   1.903       .  S
O788        C798   1.278       .  A
O789       Ni794   1.927       .  S
O789        C798   1.284       .  A
O790       Ni794   1.925       .  S
O790        C797   1.282       .  A
O791       Ni794   1.945       .  S
O791        C796   1.288       .  A
O792       Ni794   1.945       .  S
O792        C795   1.286       .  A
Ni793      Ni794   2.384       .  S
C795       C1972   1.492       .  S
C796       C1612   1.503   1_565  S
C797       C1921   1.496   1_565  S
C798       C1660   1.477       .  S
O799       Ni807   1.908       .  S
O799        C809   1.280       .  A
O800       Ni807   1.913       .  S
O800        C810   1.282       .  A
O801       Ni807   1.913       .  S
O801        C811   1.281   1_655  A
O802       Ni807   1.905       .  S
O802        C812   1.279       .  A
O803       Ni808   1.936       .  S
O803        C812   1.286       .  A
O804       Ni808   1.935       .  S
O804        C811   1.285   1_655  A
O805       Ni808   1.928       .  S
O805        C810   1.282       .  A
O806       Ni808   1.931       .  S
O806        C809   1.284       .  A
Ni807      Ni808   2.386       .  S
C809       C1852   1.483       .  S
C810       C1132   1.486   1_655  S
C811       C1801   1.490       .  S
C812       C1180   1.494       .  S
O813       Ni821   1.923       .  S
O813        C823   1.281       .  A
O814       Ni821   1.932   1_545  S
O814        C824   1.284       .  A
O815       Ni821   1.942   1_545  S
O815        C825   1.288       .  A
O816       Ni821   1.931       .  S
O816        C826   1.285       .  A
O817       Ni822   1.909   1_565  S
O817        C826   1.280       .  A
O818       Ni822   1.903       .  S
O818        C825   1.279       .  A
O819       Ni822   1.915       .  S
O819        C824   1.281       .  A
O820       Ni822   1.917   1_565  S
O820        C823   1.282       .  A
Ni821      Ni822   2.385   1_565  S
C823       C1948   1.481       .  S
C824       C1420   1.490       .  S
C825       C1897   1.500       .  S
C826       C1465   1.491       .  S
O827       Ni835   1.950       .  S
O827        C837   1.287       .  A
O828       Ni835   1.947       .  S
O828        C838   1.287       .  A
O829       Ni835   1.926       .  S
O829        C839   1.284       .  A
O830       Ni835   1.928   1_554  S
O830        C840   1.284       .  A
O831       Ni836   1.922       .  S
O831        C840   1.283   1_556  A
O832       Ni836   1.917       .  S
O832        C839   1.281       .  A
O833       Ni836   1.911       .  S
O833        C838   1.279       .  A
O834       Ni836   1.914       .  S
O834        C837   1.282       .  A
Ni835      Ni836   2.382       .  S
C837       C1036   1.509   1_556  S
C838       C1564   1.486       .  S
C839       C1084   1.486       .  S
C840       C1516   1.501       .  S
C841        C842   1.397       .  A
C841        C846   1.411       .  A
C842        C843   1.395       .  A
C842        H847   1.085   1_455  S
C843        C844   1.416       .  A
C843        O848   1.371   1_455  S
C844        C845   1.404       .  A
C845        C846   1.409       .  A
C845        H849   1.083       .  S
C846        O850   1.371       .  S
O848        H852   0.992       .  S
O850        H851   0.992       .  S
C853        C854   1.412       .  A
C853        C858   1.402       .  A
C854        C855   1.411       .  A
C854        H859   1.083       .  S
C855        C856   1.406       .  A
C855        O860   1.371       .  S
C856        C857   1.408       .  A
C857        C858   1.397       .  A
C857        H861   1.082       .  S
C858        O862   1.373       .  S
O860        H864   0.992       .  S
O862        H863   0.992       .  S
C865        C866   1.411       .  A
C865        C870   1.416       .  A
C866        C867   1.417       .  A
C866        H871   1.083       .  S
C867        C868   1.413       .  A
C867        O872   1.371       .  S
C868        C869   1.400       .  A
C869        C870   1.395       .  A
C869        H873   1.085       .  S
C870        O874   1.372       .  S
O872        H876   0.992       .  S
O874        H875   0.992       .  S
C877        C878   1.403       .  A
C877        C882   1.409       .  A
C878        C879   1.398       .  A
C878        H883   1.085       .  S
C879        C880   1.416       .  A
C879        O884   1.372       .  S
C880        C881   1.411       .  A
C881        C882   1.412       .  A
C881        H885   1.083       .  S
C882        O886   1.371       .  S
O884        H888   0.992       .  S
O886        H887   0.991       .  S
C889        C890   1.402       .  A
C889        C894   1.406       .  A
C890        C891   1.407       .  A
C890        H895   1.083       .  S
C891        C892   1.417       .  A
C891        O896   1.371       .  S
C892        C893   1.406       .  A
C893        C894   1.394       .  A
C893        H897   1.083       .  S
C894        O898   1.372       .  S
O896        H900   0.992       .  S
O898        H899   0.992       .  S
C901        C902   1.402       .  A
C901        C906   1.416       .  A
C902        C903   1.404       .  A
C902        H907   1.080       .  S
C903        C904   1.414       .  A
C903        O908   1.371       .  S
C904        C905   1.402       .  A
C905        C906   1.405       .  A
C905        H909   1.084       .  S
C906        O910   1.374       .  S
O908        H912   0.992       .  S
O910        H911   0.992       .  S
C913        C914   1.412       .  A
C913        C918   1.402       .  A
C914        C915   1.412       .  A
C914        H919   1.084       .  S
C915        C916   1.409       .  A
C915        O920   1.371       .  S
C916        C917   1.408       .  A
C917        C918   1.399       .  A
C917        H921   1.079       .  S
C918        O922   1.372       .  S
O920        H924   0.992       .  S
O922        H923   0.992       .  S
C925        C926   1.399       .  A
C925        C930   1.409       .  A
C926        C927   1.399       .  A
C926        H931   1.083       .  S
C927        C928   1.415       .  A
C927        O932   1.372       .  S
C928        C929   1.409       .  A
C929        C930   1.410       .  A
C929        H933   1.083       .  S
C930        O934   1.371       .  S
O932        H936   0.992       .  S
O934        H935   0.993       .  S
C937        C938   1.405       .  A
C937        C942   1.405       .  A
C938        C939   1.407       .  A
C938        H943   1.084       .  S
C939        C940   1.413       .  A
C939        O944   1.368       .  S
C940        C941   1.413       .  A
C941        C942   1.406       .  A
C941        H945   1.084       .  S
C942        O946   1.372       .  S
O944        H948   0.993       .  S
O946        H947   0.992       .  S
C949        C950   1.409       .  A
C949        C954   1.402       .  A
C950        C951   1.414       .  A
C950        H955   1.083       .  S
C951        C952   1.414       .  A
C951        O956   1.371       .  S
C952        C953   1.409       .  A
C953        C954   1.396       .  A
C953        H957   1.082       .  S
C954        O958   1.372       .  S
O956        H960   0.992       .  S
O958        H959   0.992       .  S
C961        C962   1.408       .  A
C961        C966   1.405       .  A
C962        C963   1.407       .  A
C962        H967   1.084       .  S
C963        C964   1.410       .  A
C963        O968   1.371       .  S
C964        C965   1.410       .  A
C965        C966   1.402       .  A
C965        H969   1.083       .  S
C966        O970   1.372       .  S
O968        H972   0.992       .  S
O970        H971   0.992       .  S
C973        C974   1.407       .  A
C973        C978   1.412       .  A
C974        C975   1.392       .  A
C974        H979   1.083       .  S
C975        C976   1.403       .  A
C975        O980   1.373       .  S
C976        C977   1.409       .  A
C977        C978   1.413       .  A
C977        H981   1.083       .  S
C978        O982   1.371       .  S
O980        H984   0.993       .  S
O982        H983   0.992       .  S
C985        C986   1.407       .  A
C985        C990   1.416   1_655  A
C986        C987   1.409       .  A
C986        H991   1.083       .  S
C987        C988   1.412       .  A
C987        O992   1.371       .  S
C988        C989   1.401   1_655  A
C989        C990   1.402       .  A
C989        H993   1.084       .  S
C990        O994   1.372       .  S
O992        H996   0.991       .  S
O994        H995   0.992       .  S
C997        C998   1.408       .  A
C997       C1002   1.403       .  A
C998        C999   1.404       .  A
C998       H1003   1.084       .  S
C999       C1000   1.406       .  A
C999       O1004   1.371       .  S
C1000      C1001   1.408       .  A
C1001      C1002   1.397       .  A
C1001      H1005   1.084       .  S
C1002      O1006   1.372       .  S
O1004      H1008   0.992       .  S
O1006      H1007   0.992       .  S
C1009      C1010   1.409       .  A
C1009      C1014   1.407       .  A
C1010      C1011   1.411       .  A
C1010      H1015   1.084       .  S
C1011      C1012   1.409       .  A
C1011      O1016   1.369   1_655  S
C1012      C1013   1.412       .  A
C1013      C1014   1.406       .  A
C1013      H1017   1.084       .  S
C1014      O1018   1.372       .  S
O1016      H1020   0.993   1_455  S
O1018      H1019   0.993       .  S
C1021      C1022   1.408       .  A
C1021      C1026   1.406       .  A
C1022      C1023   1.411       .  A
C1022      H1027   1.083       .  S
C1023      C1024   1.415       .  A
C1023      O1028   1.371       .  S
C1024      C1025   1.412       .  A
C1025      C1026   1.404       .  A
C1025      H1029   1.083       .  S
C1026      O1030   1.372       .  S
O1028      H1032   0.992       .  S
O1030      H1031   0.993       .  S
C1033      C1034   1.402       .  A
C1033      C1038   1.413       .  A
C1034      C1035   1.398   1_554  A
C1034      H1039   1.084   1_554  S
C1035      C1036   1.417   1_556  A
C1035      O1040   1.372       .  S
C1036      C1037   1.414       .  A
C1037      C1038   1.421       .  A
C1037      H1041   1.083       .  S
C1038      O1042   1.371       .  S
O1040      H1044   0.992       .  S
O1042      H1043   0.991       .  S
C1045      C1046   1.408       .  A
C1045      C1050   1.412       .  A
C1046      C1047   1.398       .  A
C1046      H1051   1.081       .  S
C1047      C1048   1.403       .  A
C1047      O1052   1.373       .  S
C1048      C1049   1.410       .  A
C1049      C1050   1.413       .  A
C1049      H1053   1.083       .  S
C1050      O1054   1.371       .  S
O1052      H1056   0.992       .  S
O1054      H1055   0.992       .  S
C1057      C1058   1.410       .  A
C1057      C1062   1.403   1_554  A
C1058      C1059   1.410       .  A
C1058      H1063   1.083       .  S
C1059      C1060   1.408       .  A
C1059      O1064   1.371       .  S
C1060      C1061   1.405   1_554  A
C1061      C1062   1.395       .  A
C1061      H1065   1.082       .  S
C1062      O1066   1.373       .  S
O1064      H1068   0.992       .  S
O1066      H1067   0.992       .  S
C1069      C1070   1.400       .  A
C1069      C1074   1.411       .  A
C1070      C1071   1.397       .  A
C1070      H1075   1.085       .  S
C1071      C1072   1.417       .  A
C1071      O1076   1.371       .  S
C1072      C1073   1.409       .  A
C1073      C1074   1.412       .  A
C1073      H1077   1.083       .  S
C1074      O1078   1.371       .  S
O1076      H1080   0.992       .  S
O1078      H1079   0.993       .  S
C1081      C1082   1.412       .  A
C1081      C1086   1.409       .  A
C1082      C1083   1.406       .  A
C1082      H1087   1.084       .  S
C1083      C1084   1.406       .  A
C1083      O1088   1.372       .  S
C1084      C1085   1.407       .  A
C1085      C1086   1.407       .  A
C1085      H1089   1.084       .  S
C1086      O1090   1.369       .  S
O1088      H1092   0.993       .  S
O1090      H1091   0.993       .  S
C1093      C1094   1.398       .  A
C1093      C1098   1.408       .  A
C1094      C1095   1.397       .  A
C1094      H1099   1.084       .  S
C1095      C1096   1.420       .  A
C1095      O1100   1.372       .  S
C1096      C1097   1.411       .  A
C1097      C1098   1.412       .  A
C1097      H1101   1.083       .  S
C1098      O1102   1.371       .  S
O1100      H1104   0.992       .  S
O1102      H1103   0.992       .  S
C1105      C1106   1.407       .  A
C1105      C1110   1.409       .  A
C1106      C1107   1.415       .  A
C1106      H1111   1.083       .  S
C1107      C1108   1.416       .  A
C1107      O1112   1.371       .  S
C1108      C1109   1.409       .  A
C1109      C1110   1.397       .  A
C1109      H1113   1.083       .  S
C1110      O1114   1.374       .  S
O1112      H1116   0.992       .  S
O1114      H1115   0.991       .  S
C1117      C1118   1.401       .  A
C1117      C1122   1.408       .  A
C1118      C1119   1.402       .  A
C1118      H1123   1.084       .  S
C1119      C1120   1.415       .  A
C1119      O1124   1.372       .  S
C1120      C1121   1.406       .  A
C1121      C1122   1.405       .  A
C1121      H1125   1.083       .  S
C1122      O1126   1.372       .  S
O1124      H1128   0.992       .  S
O1126      H1127   0.992       .  S
C1129      C1130   1.398   1_455  A
C1129      C1134   1.411       .  A
C1130      C1131   1.395       .  A
C1130      H1135   1.084       .  S
C1131      C1132   1.413   1_655  A
C1131      O1136   1.371       .  S
C1132      C1133   1.406       .  A
C1133      C1134   1.411       .  A
C1133      H1137   1.083       .  S
C1134      O1138   1.371       .  S
O1136      H1140   0.992       .  S
O1138      H1139   0.992       .  S
C1141      C1142   1.413       .  A
C1141      C1146   1.417       .  A
C1142      C1143   1.415       .  A
C1142      H1147   1.083       .  S
C1143      C1144   1.410       .  A
C1143      O1148   1.371       .  S
C1144      C1145   1.400       .  A
C1145      C1146   1.394       .  A
C1145      H1149   1.085       .  S
C1146      O1150   1.372       .  S
O1148      H1152   0.992       .  S
O1150      H1151   0.992       .  S
C1153      C1154   1.406       .  A
C1153      C1158   1.408       .  A
C1154      C1155   1.410       .  A
C1154      H1159   1.083       .  S
C1155      C1156   1.414       .  A
C1155      O1160   1.371       .  S
C1156      C1157   1.408       .  A
C1157      C1158   1.401       .  A
C1157      H1161   1.082       .  S
C1158      O1162   1.373       .  S
O1160      H1164   0.992       .  S
O1162      H1163   0.993       .  S
C1165      C1166   1.399       .  A
C1165      C1170   1.413       .  A
C1166      C1167   1.400       .  A
C1166      H1171   1.084       .  S
C1167      C1168   1.416       .  A
C1167      O1172   1.371       .  S
C1168      C1169   1.405       .  A
C1169      C1170   1.409       .  A
C1169      H1173   1.083       .  S
C1170      O1174   1.372       .  S
O1172      H1176   0.992       .  S
O1174      H1175   0.992       .  S
C1177      C1178   1.407       .  A
C1177      C1182   1.408       .  A
C1178      C1179   1.398       .  A
C1178      H1183   1.084       .  S
C1179      C1180   1.412       .  A
C1179      O1184   1.372       .  S
C1180      C1181   1.412       .  A
C1181      C1182   1.410       .  A
C1181      H1185   1.083       .  S
C1182      O1186   1.370       .  S
O1184      H1188   0.992       .  S
O1186      H1187   0.992       .  S
C1189      C1190   1.412       .  A
C1189      C1194   1.410       .  A
C1190      C1191   1.405       .  A
C1190      H1195   1.084       .  S
C1191      C1192   1.405       .  A
C1191      O1196   1.371       .  S
C1192      C1193   1.405       .  A
C1193      C1194   1.404       .  A
C1193      H1197   1.084       .  S
C1194      O1198   1.369       .  S
O1196      H1200   0.992       .  S
O1198      H1199   0.992       .  S
C1201      C1202   1.395       .  A
C1201      C1206   1.410       .  A
C1202      C1203   1.393       .  A
C1202      H1207   1.085       .  S
C1203      C1204   1.417       .  A
C1203      O1208   1.372       .  S
C1204      C1205   1.405       .  A
C1205      C1206   1.405       .  A
C1205      H1209   1.083       .  S
C1206      O1210   1.372       .  S
O1208      H1212   0.992       .  S
O1210      H1211   0.992       .  S
C1213      C1214   1.399       .  A
C1213      C1218   1.409       .  A
C1214      C1215   1.396       .  A
C1214      H1219   1.084       .  S
C1215      C1216   1.416       .  A
C1215      O1220   1.371       .  S
C1216      C1217   1.410       .  A
C1217      C1218   1.412       .  A
C1217      H1221   1.083       .  S
C1218      O1222   1.370       .  S
O1220      H1224   0.992       .  S
O1222      H1223   0.992       .  S
C1225      C1226   1.399       .  A
C1225      C1230   1.410       .  A
C1226      C1227   1.400       .  A
C1226      H1231   1.084       .  S
C1227      C1228   1.418       .  A
C1227      O1232   1.372   1_554  S
C1228      C1229   1.406       .  A
C1229      C1230   1.406       .  A
C1229      H1233   1.083       .  S
C1230      O1234   1.372       .  S
O1232      H1236   0.992   1_556  S
O1234      H1235   0.992       .  S
C1237      C1238   1.406       .  A
C1237      C1242   1.405       .  A
C1238      C1239   1.407       .  A
C1238      H1243   1.084       .  S
C1239      C1240   1.407       .  A
C1239      O1244   1.369       .  S
C1240      C1241   1.410       .  A
C1241      C1242   1.401       .  A
C1241      H1245   1.084       .  S
C1242      O1246   1.371       .  S
O1244      H1248   0.991       .  S
O1246      H1247   0.991       .  S
C1249      C1250   1.400       .  A
C1249      C1254   1.412   1_554  A
C1250      C1251   1.401       .  A
C1250      H1255   1.084       .  S
C1251      C1252   1.412       .  A
C1251      O1256   1.373       .  S
C1252      C1253   1.403   1_554  A
C1253      C1254   1.405       .  A
C1253      H1257   1.081       .  S
C1254      O1258   1.371       .  S
O1256      H1260   0.992       .  S
O1258      H1259   0.992       .  S
C1261      C1262   1.405       .  A
C1261      C1266   1.408       .  A
C1262      C1263   1.409       .  A
C1262      H1267   1.083       .  S
C1263      C1264   1.415       .  A
C1263      O1268   1.371       .  S
C1264      C1265   1.411       .  A
C1265      C1266   1.404       .  A
C1265      H1269   1.083       .  S
C1266      O1270   1.372       .  S
O1268      H1272   0.992       .  S
O1270      H1271   0.992       .  S
C1273      C1274   1.410       .  A
C1273      C1278   1.408       .  A
C1274      C1275   1.410       .  A
C1274      H1279   1.083       .  S
C1275      C1276   1.410       .  A
C1275      O1280   1.371       .  S
C1276      C1277   1.409       .  A
C1277      C1278   1.402       .  A
C1277      H1281   1.083       .  S
C1278      O1282   1.372       .  S
O1280      H1284   0.993       .  S
O1282      H1283   0.992       .  S
C1285      C1286   1.408       .  A
C1285      C1290   1.405       .  A
C1286      C1287   1.411       .  A
C1286      H1291   1.084       .  S
C1287      C1288   1.410       .  A
C1287      O1292   1.369       .  S
C1288      C1289   1.412       .  A
C1289      C1290   1.405       .  A
C1289      H1293   1.084       .  S
C1290      O1294   1.372       .  S
O1292      H1296   0.993       .  S
O1294      H1295   0.992       .  S
C1297      C1298   1.408       .  A
C1297      C1302   1.405       .  A
C1298      C1299   1.411       .  A
C1298      H1303   1.083       .  S
C1299      C1300   1.413       .  A
C1299      O1304   1.371       .  S
C1300      C1301   1.411       .  A
C1301      C1302   1.400       .  A
C1301      H1305   1.083       .  S
C1302      O1306   1.372       .  S
O1304      H1308   0.992       .  S
O1306      H1307   0.993       .  S
C1309      C1310   1.407       .  A
C1309      C1314   1.419       .  A
C1310      C1311   1.410       .  A
C1310      H1315   1.083       .  S
C1311      C1312   1.411       .  A
C1311      O1316   1.371       .  S
C1312      C1313   1.399       .  A
C1313      C1314   1.398       .  A
C1313      H1317   1.084       .  S
C1314      O1318   1.372       .  S
O1316      H1320   0.992       .  S
O1318      H1319   0.991       .  S
C1321      C1322   1.400       .  A
C1321      C1326   1.410       .  A
C1322      C1323   1.399       .  A
C1322      H1327   1.084       .  S
C1323      C1324   1.418       .  A
C1323      O1328   1.372   1_554  S
C1324      C1325   1.407       .  A
C1325      C1326   1.407       .  A
C1325      H1329   1.083       .  S
C1326      O1330   1.372       .  S
O1328      H1332   0.992       .  S
O1330      H1331   0.992       .  S
C1333      C1334   1.402       .  A
C1333      C1338   1.415       .  A
C1334      C1335   1.406       .  A
C1334      H1339   1.084       .  S
C1335      C1336   1.418       .  A
C1335      O1340   1.374       .  S
C1336      C1337   1.404       .  A
C1337      C1338   1.409       .  A
C1337      H1341   1.080       .  S
C1338      O1342   1.370       .  S
O1340      H1344   0.992       .  S
O1342      H1343   0.992       .  S
C1345      C1346   1.395       .  A
C1345      C1350   1.410       .  A
C1346      C1347   1.392       .  A
C1346      H1351   1.085       .  S
C1347      C1348   1.420       .  A
C1347      O1352   1.372       .  S
C1348      C1349   1.408       .  A
C1349      C1350   1.411       .  A
C1349      H1353   1.083       .  S
C1350      O1354   1.371       .  S
O1352      H1356   0.992       .  S
O1354      H1355   0.993       .  S
C1357      C1358   1.411       .  A
C1357      C1362   1.416       .  A
C1358      C1359   1.410       .  A
C1358      H1363   1.083       .  S
C1359      C1360   1.407       .  A
C1359      O1364   1.371       .  S
C1360      C1361   1.402       .  A
C1361      C1362   1.396       .  A
C1361      H1365   1.084       .  S
C1362      O1366   1.372       .  S
O1364      H1368   0.991       .  S
O1366      H1367   0.993       .  S
C1369      C1370   1.413       .  A
C1369      C1374   1.409       .  A
C1370      C1371   1.407       .  A
C1370      H1375   1.084       .  S
C1371      C1372   1.405       .  A
C1371      O1376   1.372       .  S
C1372      C1373   1.407       .  A
C1373      C1374   1.410       .  A
C1373      H1377   1.084       .  S
C1374      O1378   1.368       .  S
O1376      H1380   0.992       .  S
O1378      H1379   0.992       .  S
C1381      C1382   1.409       .  A
C1381      C1386   1.407       .  A
C1382      C1383   1.408       .  A
C1382      H1387   1.084       .  S
C1383      C1384   1.410       .  A
C1383      O1388   1.371       .  S
C1384      C1385   1.410       .  A
C1385      C1386   1.403       .  A
C1385      H1389   1.082       .  S
C1386      O1390   1.372       .  S
O1388      H1392   0.992       .  S
O1390      H1391   0.992       .  S
C1393      C1394   1.407       .  A
C1393      C1398   1.408       .  A
C1394      C1395   1.414       .  A
C1394      H1399   1.083       .  S
C1395      C1396   1.415       .  A
C1395      O1400   1.371       .  S
C1396      C1397   1.408       .  A
C1397      C1398   1.398       .  A
C1397      H1401   1.082       .  S
C1398      O1402   1.373       .  S
O1400      H1404   0.992       .  S
O1402      H1403   0.991       .  S
C1405      C1406   1.400       .  A
C1405      C1410   1.410       .  A
C1406      C1407   1.401       .  A
C1406      H1411   1.084       .  S
C1407      C1408   1.418       .  A
C1407      O1412   1.371       .  S
C1408      C1409   1.408       .  A
C1409      C1410   1.409       .  A
C1409      H1413   1.083       .  S
C1410      O1414   1.372       .  S
O1412      H1416   0.992       .  S
O1414      H1415   0.992       .  S
C1417      C1418   1.402       .  A
C1417      C1422   1.415       .  A
C1418      C1419   1.408       .  A
C1418      H1423   1.082   1_545  S
C1419      C1420   1.416       .  A
C1419      O1424   1.371   1_545  S
C1420      C1421   1.402       .  A
C1421      C1422   1.405       .  A
C1421      H1425   1.084       .  S
C1422      O1426   1.374       .  S
O1424      H1428   0.992   1_565  S
O1426      H1427   0.992       .  S
C1429      C1430   1.401       .  A
C1429      C1434   1.405       .  A
C1430      C1431   1.401       .  A
C1430      H1435   1.084       .  S
C1431      C1432   1.416       .  A
C1431      O1436   1.371       .  S
C1432      C1433   1.411       .  A
C1433      C1434   1.406       .  A
C1433      H1437   1.083       .  S
C1434      O1438   1.371       .  S
O1436      H1440   0.992       .  S
O1438      H1439   0.992       .  S
C1441      C1442   1.398   1_545  A
C1441      C1446   1.413       .  A
C1442      C1443   1.401       .  A
C1442      H1447   1.084       .  S
C1443      C1444   1.417       .  A
C1443      O1448   1.371       .  S
C1444      C1445   1.405   1_565  A
C1445      C1446   1.410       .  A
C1445      H1449   1.083       .  S
C1446      O1450   1.372       .  S
O1448      H1452   0.992       .  S
O1450      H1451   0.992       .  S
C1453      C1454   1.408       .  A
C1453      C1458   1.405       .  A
C1454      C1455   1.400       .  A
C1454      H1459   1.082       .  S
C1455      C1456   1.403       .  A
C1455      O1460   1.372       .  S
C1456      C1457   1.412       .  A
C1457      C1458   1.408       .  A
C1457      H1461   1.084       .  S
C1458      O1462   1.371       .  S
O1460      H1464   0.992       .  S
O1462      H1463   0.992       .  S
C1465      C1466   1.407       .  A
C1465      C1470   1.417       .  A
C1466      C1467   1.407       .  A
C1466      H1471   1.083       .  S
C1467      C1468   1.409       .  A
C1467      O1472   1.371       .  S
C1468      C1469   1.399       .  A
C1469      C1470   1.399       .  A
C1469      H1473   1.084       .  S
C1470      O1474   1.372       .  S
O1472      H1476   0.992       .  S
O1474      H1475   0.992       .  S
C1477      C1478   1.398       .  A
C1477      C1482   1.410       .  A
C1478      C1479   1.395       .  A
C1478      H1483   1.084       .  S
C1479      C1480   1.418       .  A
C1479      O1484   1.372       .  S
C1480      C1481   1.408       .  A
C1481      C1482   1.411       .  A
C1481      H1485   1.083       .  S
C1482      O1486   1.371       .  S
O1484      H1488   0.992       .  S
O1486      H1487   0.992       .  S
C1489      C1490   1.404       .  A
C1489      C1494   1.407       .  A
C1490      C1491   1.411       .  A
C1490      H1495   1.083       .  S
C1491      C1492   1.417       .  A
C1491      O1496   1.371       .  S
C1492      C1493   1.411       .  A
C1493      C1494   1.403       .  A
C1493      H1497   1.083       .  S
C1494      O1498   1.372       .  S
O1496      H1500   0.993       .  S
O1498      H1499   0.992       .  S
C1501      C1502   1.413       .  A
C1501      C1506   1.410       .  A
C1502      C1503   1.406       .  A
C1502      H1507   1.084       .  S
C1503      C1504   1.404       .  A
C1503      O1508   1.372       .  S
C1504      C1505   1.405       .  A
C1505      C1506   1.408       .  A
C1505      H1509   1.084       .  S
C1506      O1510   1.368       .  S
O1508      H1512   0.992       .  S
O1510      H1511   0.993       .  S
C1513      C1514   1.404       .  A
C1513      C1518   1.407       .  A
C1514      C1515   1.408       .  A
C1514      H1519   1.084       .  S
C1515      C1516   1.417       .  A
C1515      O1520   1.371       .  S
C1516      C1517   1.411       .  A
C1517      C1518   1.403       .  A
C1517      H1521   1.083       .  S
C1518      O1522   1.372       .  S
O1520      H1524   0.993       .  S
O1522      H1523   0.992       .  S
C1525      C1526   1.414       .  A
C1525      C1530   1.411       .  A
C1526      C1527   1.405       .  A
C1526      H1531   1.084       .  S
C1527      C1528   1.403       .  A
C1527      O1532   1.371       .  S
C1528      C1529   1.406       .  A
C1529      C1530   1.406       .  A
C1529      H1533   1.084       .  S
C1530      O1534   1.369       .  S
O1532      H1536   0.992       .  S
O1534      H1535   0.993       .  S
C1537      C1538   1.409       .  A
C1537      C1542   1.416       .  A
C1538      C1539   1.400       .  A
C1538      H1543   1.083       .  S
C1539      C1540   1.408       .  A
C1539      O1544   1.372       .  S
C1540      C1541   1.405       .  A
C1541      C1542   1.410       .  A
C1541      H1545   1.084       .  S
C1542      O1546   1.371       .  S
O1544      H1548   0.991       .  S
O1546      H1547   0.992       .  S
C1549      C1550   1.408       .  A
C1549      C1554   1.416       .  A
C1550      C1551   1.413       .  A
C1550      H1555   1.083       .  S
C1551      C1552   1.412       .  A
C1551      O1556   1.371       .  S
C1552      C1553   1.399       .  A
C1553      C1554   1.397       .  A
C1553      H1557   1.084       .  S
C1554      O1558   1.372       .  S
O1556      H1560   0.992       .  S
O1558      H1559   0.992       .  S
C1561      C1562   1.413       .  A
C1561      C1566   1.405       .  A
C1562      C1563   1.408       .  A
C1562      H1567   1.084       .  S
C1563      C1564   1.404       .  A
C1563      O1568   1.371       .  S
C1564      C1565   1.406       .  A
C1565      C1566   1.405       .  A
C1565      H1569   1.078       .  S
C1566      O1570   1.369       .  S
O1568      H1572   0.992       .  S
O1570      H1571   0.992       .  S
C1573      C1574   1.399       .  A
C1573      C1578   1.412       .  A
C1574      C1575   1.401       .  A
C1574      H1579   1.084       .  S
C1575      C1576   1.417       .  A
C1575      O1580   1.370       .  S
C1576      C1577   1.411       .  A
C1577      C1578   1.411       .  A
C1577      H1581   1.083       .  S
C1578      O1582   1.372       .  S
O1580      H1584   0.991       .  S
O1582      H1583   0.992       .  S
C1585      C1586   1.409       .  A
C1585      C1590   1.404       .  A
C1586      C1587   1.411       .  A
C1586      H1591   1.083       .  S
C1587      C1588   1.408       .  A
C1587      O1592   1.370       .  S
C1588      C1589   1.406       .  A
C1589      C1590   1.393       .  A
C1589      H1593   1.083       .  S
C1590      O1594   1.373       .  S
O1592      H1596   0.992       .  S
O1594      H1595   0.992       .  S
C1597      C1598   1.395       .  A
C1597      C1602   1.411       .  A
C1598      C1599   1.391       .  A
C1598      H1603   1.085       .  S
C1599      C1600   1.418       .  A
C1599      O1604   1.371       .  S
C1600      C1601   1.406       .  A
C1601      C1602   1.410       .  A
C1601      H1605   1.083       .  S
C1602      O1606   1.371       .  S
O1604      H1608   0.992       .  S
O1606      H1607   0.992       .  S
C1609      C1610   1.407       .  A
C1609      C1614   1.408       .  A
C1610      C1611   1.411       .  A
C1610      H1615   1.083       .  S
C1611      C1612   1.415       .  A
C1611      O1616   1.371       .  S
C1612      C1613   1.412       .  A
C1613      C1614   1.403       .  A
C1613      H1617   1.083   1_545  S
C1614      O1618   1.372       .  S
O1616      H1620   0.992       .  S
O1618      H1619   0.991   1_545  S
C1621      C1622   1.405       .  A
C1621      C1626   1.403       .  A
C1622      C1623   1.408       .  A
C1622      H1627   1.084       .  S
C1623      C1624   1.410       .  A
C1623      O1628   1.367       .  S
C1624      C1625   1.414       .  A
C1625      C1626   1.405       .  A
C1625      H1629   1.084       .  S
C1626      O1630   1.372       .  S
O1628      H1632   0.993       .  S
O1630      H1631   0.992       .  S
C1633      C1634   1.402       .  A
C1633      C1638   1.409       .  A
C1634      C1635   1.398       .  A
C1634      H1639   1.084       .  S
C1635      C1636   1.417       .  A
C1635      O1640   1.372   1_545  S
C1636      C1637   1.411       .  A
C1637      C1638   1.411       .  A
C1637      H1641   1.083       .  S
C1638      O1642   1.371       .  S
O1640      H1644   0.993   1_565  S
O1642      H1643   0.992       .  S
C1645      C1646   1.407       .  A
C1645      C1650   1.408       .  A
C1646      C1647   1.412       .  A
C1646      H1651   1.083       .  S
C1647      C1648   1.415       .  A
C1647      O1652   1.371       .  S
C1648      C1649   1.410       .  A
C1649      C1650   1.402       .  A
C1649      H1653   1.083       .  S
C1650      O1654   1.372       .  S
O1652      H1656   0.992       .  S
O1654      H1655   0.992       .  S
C1657      C1658   1.408       .  A
C1657      C1662   1.407       .  A
C1658      C1659   1.402       .  A
C1658      H1663   1.084       .  S
C1659      C1660   1.405       .  A
C1659      O1664   1.372       .  S
C1660      C1661   1.407       .  A
C1661      C1662   1.405       .  A
C1661      H1665   1.084       .  S
C1662      O1666   1.370       .  S
O1664      H1668   0.991       .  S
O1666      H1667   0.992       .  S
C1669      C1670   1.398       .  A
C1669      C1674   1.407       .  A
C1670      C1671   1.397       .  A
C1670      H1675   1.084       .  S
C1671      C1672   1.419       .  A
C1671      O1676   1.372       .  S
C1672      C1673   1.410       .  A
C1673      C1674   1.409       .  A
C1673      H1677   1.083       .  S
C1674      O1678   1.371       .  S
O1676      H1680   0.992       .  S
O1678      H1679   0.992       .  S
C1681      C1682   1.411       .  A
C1681      C1686   1.404       .  A
C1682      C1683   1.411       .  A
C1682      H1687   1.084       .  S
C1683      C1684   1.407       .  A
C1683      O1688   1.371       .  S
C1684      C1685   1.408       .  A
C1685      C1686   1.400       .  A
C1685      H1689   1.081       .  S
C1686      O1690   1.373       .  S
O1688      H1692   0.991       .  S
O1690      H1691   0.992       .  S
C1693      C1694   1.400       .  A
C1693      C1698   1.410       .  A
C1694      C1695   1.402       .  A
C1694      H1699   1.084       .  S
C1695      C1696   1.415       .  A
C1695      O1700   1.371       .  S
C1696      C1697   1.405       .  A
C1697      C1698   1.405       .  A
C1697      H1701   1.083       .  S
C1698      O1702   1.372       .  S
O1700      H1704   0.992       .  S
O1702      H1703   0.992       .  S
C1705      C1706   1.410   1_565  A
C1705      C1710   1.416       .  A
C1706      C1707   1.416       .  A
C1706      H1711   1.083       .  S
C1707      C1708   1.411   1_545  A
C1707      O1712   1.371       .  S
C1708      C1709   1.401       .  A
C1709      C1710   1.395       .  A
C1709      H1713   1.085       .  S
C1710      O1714   1.372       .  S
O1712      H1716   0.992       .  S
O1714      H1715   0.992       .  S
C1717      C1718   1.408       .  A
C1717      C1722   1.412       .  A
C1718      C1719   1.396       .  A
C1718      H1723   1.082       .  S
C1719      C1720   1.404       .  A
C1719      O1724   1.373       .  S
C1720      C1721   1.408       .  A
C1721      C1722   1.409       .  A
C1721      H1725   1.083       .  S
C1722      O1726   1.371       .  S
O1724      H1728   0.992       .  S
O1726      H1727   0.992       .  S
C1729      C1730   1.403   1_545  A
C1729      C1734   1.412       .  A
C1730      C1731   1.400       .  A
C1730      H1735   1.085       .  S
C1731      C1732   1.418       .  A
C1731      O1736   1.371       .  S
C1732      C1733   1.411   1_565  A
C1733      C1734   1.416       .  A
C1733      H1737   1.083       .  S
C1734      O1738   1.371       .  S
O1736      H1740   0.992   1_565  S
O1738      H1739   0.992       .  S
C1741      C1742   1.398       .  A
C1741      C1746   1.413       .  A
C1742      C1743   1.397       .  A
C1742      H1747   1.085       .  S
C1743      C1744   1.419       .  A
C1743      O1748   1.371       .  S
C1744      C1745   1.409       .  A
C1745      C1746   1.414       .  A
C1745      H1749   1.083       .  S
C1746      O1750   1.371       .  S
O1748      H1752   0.992       .  S
O1750      H1751   0.992       .  S
C1753      C1754   1.405       .  A
C1753      C1758   1.407       .  A
C1754      C1755   1.411       .  A
C1754      H1759   1.083       .  S
C1755      C1756   1.416       .  A
C1755      O1760   1.371       .  S
C1756      C1757   1.410       .  A
C1757      C1758   1.403       .  A
C1757      H1761   1.082       .  S
C1758      O1762   1.372       .  S
O1760      H1764   0.992       .  S
O1762      H1763   0.992       .  S
C1765      C1766   1.405       .  A
C1765      C1770   1.418       .  A
C1766      C1767   1.408       .  A
C1766      H1771   1.080       .  S
C1767      C1768   1.413       .  A
C1767      O1772   1.370       .  S
C1768      C1769   1.400       .  A
C1769      C1770   1.406       .  A
C1769      H1773   1.084       .  S
C1770      O1774   1.374       .  S
O1772      H1776   0.993       .  S
O1774      H1775   0.992       .  S
C1777      C1778   1.401       .  A
C1777      C1782   1.408       .  A
C1778      C1779   1.400       .  A
C1778      H1783   1.084       .  S
C1779      C1780   1.417       .  A
C1779      O1784   1.371       .  S
C1780      C1781   1.408       .  A
C1781      C1782   1.405       .  A
C1781      H1785   1.083       .  S
C1782      O1786   1.371       .  S
O1784      H1788   0.992       .  S
O1786      H1787   0.992       .  S
C1789      C1790   1.406       .  A
C1789      C1794   1.409       .  A
C1790      C1791   1.412       .  A
C1790      H1795   1.083       .  S
C1791      C1792   1.414       .  A
C1791      O1796   1.371       .  S
C1792      C1793   1.407       .  A
C1793      C1794   1.391       .  A
C1793      H1797   1.083       .  S
C1794      O1798   1.374       .  S
O1796      H1800   0.992       .  S
O1798      H1799   0.991       .  S
C1801      C1802   1.409       .  A
C1801      C1806   1.408       .  A
C1802      C1803   1.402       .  A
C1802      H1807   1.084   1_455  S
C1803      C1804   1.405       .  A
C1803      O1808   1.371       .  S
C1804      C1805   1.410       .  A
C1805      C1806   1.408       .  A
C1805      H1809   1.084       .  S
C1806      O1810   1.371       .  S
O1808      H1812   0.992       .  S
O1810      H1811   0.992       .  S
C1813      C1814   1.414       .  A
C1813      C1818   1.407       .  A
C1814      C1815   1.405       .  A
C1814      H1819   1.084       .  S
C1815      C1816   1.402       .  A
C1815      O1820   1.371       .  S
C1816      C1817   1.405       .  A
C1817      C1818   1.404       .  A
C1817      H1821   1.076       .  S
C1818      O1822   1.370       .  S
O1820      H1824   0.991       .  S
O1822      H1823   0.992       .  S
C1825      C1826   1.412       .  A
C1825      C1830   1.407       .  A
C1826      C1827   1.403       .  A
C1826      H1831   1.084       .  S
C1827      C1828   1.406       .  A
C1827      O1832   1.371       .  S
C1828      C1829   1.406       .  A
C1829      C1830   1.406       .  A
C1829      H1833   1.084       .  S
C1830      O1834   1.368       .  S
O1832      H1836   0.992       .  S
O1834      H1835   0.993       .  S
C1837      C1838   1.401       .  A
C1837      C1842   1.407       .  A
C1838      C1839   1.405       .  A
C1838      H1843   1.084       .  S
C1839      C1840   1.419       .  A
C1839      O1844   1.371       .  S
C1840      C1841   1.408       .  A
C1841      C1842   1.401       .  A
C1841      H1845   1.083       .  S
C1842      O1846   1.372       .  S
O1844      H1848   0.991       .  S
O1846      H1847   0.994       .  S
C1849      C1850   1.401       .  A
C1849      C1854   1.415       .  A
C1850      C1851   1.406       .  A
C1850      H1855   1.083       .  S
C1851      C1852   1.415       .  A
C1851      O1856   1.371       .  S
C1852      C1853   1.401       .  A
C1853      C1854   1.401       .  A
C1853      H1857   1.084       .  S
C1854      O1858   1.372       .  S
O1856      H1860   0.992       .  S
O1858      H1859   0.992       .  S
C1861      C1862   1.407       .  A
C1861      C1866   1.405       .  A
C1862      C1863   1.407       .  A
C1862      H1867   1.084       .  S
C1863      C1864   1.410       .  A
C1863      O1868   1.371       .  S
C1864      C1865   1.409       .  A
C1865      C1866   1.398       .  A
C1865      H1869   1.083       .  S
C1866      O1870   1.372       .  S
O1868      H1872   0.992       .  S
O1870      H1871   0.992       .  S
C1873      C1874   1.411       .  A
C1873      C1878   1.418       .  A
C1874      C1875   1.410       .  A
C1874      H1879   1.083       .  S
C1875      C1876   1.409       .  A
C1875      O1880   1.371       .  S
C1876      C1877   1.403       .  A
C1877      C1878   1.405       .  A
C1877      H1881   1.084       .  S
C1878      O1882   1.371   1_655  S
O1880      H1884   0.992       .  S
O1882      H1883   0.992   1_455  S
C1885      C1886   1.399       .  A
C1885      C1890   1.411       .  A
C1886      C1887   1.402       .  A
C1886      H1891   1.084       .  S
C1887      C1888   1.419       .  A
C1887      O1892   1.371       .  S
C1888      C1889   1.408       .  A
C1889      C1890   1.411       .  A
C1889      H1893   1.083       .  S
C1890      O1894   1.371       .  S
O1892      H1896   0.992       .  S
O1894      H1895   0.992       .  S
C1897      C1898   1.413       .  A
C1897      C1902   1.416       .  A
C1898      C1899   1.414       .  A
C1898      H1903   1.083       .  S
C1899      C1900   1.408       .  A
C1899      O1904   1.371       .  S
C1900      C1901   1.404       .  A
C1901      C1902   1.400       .  A
C1901      H1905   1.084       .  S
C1902      O1906   1.372       .  S
O1904      H1908   0.991       .  S
O1906      H1907   0.991       .  S
C1909      C1910   1.408       .  A
C1909      C1914   1.409       .  A
C1910      C1911   1.405       .  A
C1910      H1915   1.084       .  S
C1911      C1912   1.408       .  A
C1911      O1916   1.372       .  S
C1912      C1913   1.407       .  A
C1913      C1914   1.406       .  A
C1913      H1917   1.084       .  S
C1914      O1918   1.368       .  S
O1916      H1920   0.993       .  S
O1918      H1919   0.996       .  S
C1921      C1922   1.405       .  A
C1921      C1926   1.418       .  A
C1922      C1923   1.397       .  A
C1922      H1927   1.083       .  S
C1923      C1924   1.409       .  A
C1923      O1928   1.374       .  S
C1924      C1925   1.403       .  A
C1925      C1926   1.410       .  A
C1925      H1929   1.083       .  S
C1926      O1930   1.371       .  S
O1928      H1932   0.993       .  S
O1930      H1931   0.992       .  S
C1933      C1934   1.403       .  A
C1933      C1938   1.408       .  A
C1934      C1935   1.402       .  A
C1934      H1939   1.084       .  S
C1935      C1936   1.415       .  A
C1935      O1940   1.371       .  S
C1936      C1937   1.410       .  A
C1937      C1938   1.408       .  A
C1937      H1941   1.083       .  S
C1938      O1942   1.371       .  S
O1940      H1944   0.992       .  S
O1942      H1943   0.992       .  S
C1945      C1946   1.398       .  A
C1945      C1950   1.412       .  A
C1946      C1947   1.399       .  A
C1946      H1951   1.084       .  S
C1947      C1948   1.413       .  A
C1947      O1952   1.370       .  S
C1948      C1949   1.402       .  A
C1949      C1950   1.405       .  A
C1949      H1953   1.083       .  S
C1950      O1954   1.371       .  S
O1952      H1956   0.991       .  S
O1954      H1955   0.991       .  S
C1957      C1958   1.412       .  A
C1957      C1962   1.404       .  A
C1958      C1959   1.415       .  A
C1958      H1963   1.083       .  S
C1959      C1960   1.411       .  A
C1959      O1964   1.371       .  S
C1960      C1961   1.409       .  A
C1961      C1962   1.400       .  A
C1961      H1965   1.082       .  S
C1962      O1966   1.373       .  S
O1964      H1968   0.992       .  S
O1966      H1967   0.993       .  S
C1969      C1970   1.394       .  A
C1969      C1974   1.415       .  A
C1970      C1971   1.391       .  A
C1970      H1975   1.085       .  S
C1971      C1972   1.416       .  A
C1971      O1976   1.370       .  S
C1972      C1973   1.407       .  A
C1973      C1974   1.416       .  A
C1973      H1977   1.083       .  S
C1974      O1978   1.371       .  S
O1976      H1980   0.992       .  S
O1978      H1979   0.994       .  S
C1981      C1982   1.405       .  A
C1981      C1986   1.406       .  A
C1982      C1983   1.409       .  A
C1982      H1987   1.083       .  S
C1983      C1984   1.414       .  A
C1983      O1988   1.371       .  S
C1984      C1985   1.407       .  A
C1985      C1986   1.395       .  A
C1985      H1989   1.083       .  S
C1986      O1990   1.374       .  S
O1988      H1992   0.991       .  S
O1990      H1991   0.992       .  S
