geometry optimzed in LAMMPS
_audit_creation_date              2020-11-30 
_audit_creation_method            'lammps2cif' 
_symmetry_space_group_name_H-M    'P1' 
_symmetry_Int_Tables_number       1 
_symmetry_cell_setting            triclinic 
loop_ 
_symmetry_equiv_pos_as_xyz 
  x,y,z 
_cell_length_a                    31.35149233 
_cell_length_b                    31.515567260088073 
_cell_length_c                    24.70861978093483 
_cell_angle_alpha                 90.36644511069994 
_cell_angle_beta                  89.56688823588597 
_cell_angle_gamma                 90.36910628373681 
loop_ 
_atom_site_label 
_atom_site_type_symbol 
_atom_site_fract_x 
_atom_site_fract_y 
_atom_site_fract_z 
_atom_site_charge 
C1          C  0.78883008  0.75374906  0.78483256     0.02000
C2          C  0.75433197  0.78263766  0.78645486     0.01900
C3          C  0.71905366  0.77561697  0.75303411    -0.18600
C4          C  0.71607080  0.74045340  0.71815641     0.02000
C5          C  0.74995529  0.71094674  0.71667509     0.01900
C6          C  0.78529264  0.71742839  0.75106518    -0.18600
H7          H  0.81086828  0.69442727  0.75046290     0.04000
H8          H  0.69352180  0.79872656  0.75335234     0.04000
C9          C  0.79912143  0.23478978  0.76673789     0.02000
C10         C  0.76715489  0.20270761  0.76440267     0.01900
C11         C  0.73200026  0.20842982  0.72981821    -0.18600
C12         C  0.72617082  0.24596156  0.70040043     0.02000
C13         C  0.75835776  0.27746778  0.70190058     0.01900
C14         C  0.79425139  0.27150165  0.73491628    -0.18600
H15         H  0.81853756  0.29612032  0.73626308     0.04000
H16         H  0.70766929  0.18387586  0.72777387     0.04000
C17         C  0.25837256  0.22135452  0.79000991     0.02000
C18         C  0.22626750  0.25225625  0.79607012     0.01900
C19         C  0.23081601  0.29105941  0.76884816    -0.18600
C20         C  0.26537144  0.29934141  0.73316046     0.02000
C21         C  0.29688698  0.26763911  0.72576709     0.01900
C22         C  0.29297937  0.22931029  0.75453503    -0.18600
H23         H  0.31718230  0.20517963  0.74919949     0.04000
H24         H  0.20597687  0.31460588  0.77369555     0.04000
C25         C  0.21327279  0.75819399  0.77971782     0.02000
C26         C  0.24497792  0.79002849  0.78084758     0.01900
C27         C  0.28138845  0.78477129  0.74847302    -0.18600
C28         C  0.28620765  0.74920323  0.71405959     0.02000
C29         C  0.25460073  0.71686592  0.71346353     0.01900
C30         C  0.21806308  0.72237195  0.74598903    -0.18600
H31         H  0.19345266  0.69805624  0.74610834     0.04000
H32         H  0.30629316  0.80876229  0.74981200     0.04000
C33         C  0.22384079  0.75017714  0.20253061     0.02000
C34         C  0.25708092  0.78072302  0.20421092     0.01900
C35         C  0.29249700  0.77397117  0.23784610    -0.18600
C36         C  0.29649604  0.73699730  0.26876457     0.02000
C37         C  0.26331266  0.70643571  0.26739611     0.01900
C38         C  0.22769380  0.71319059  0.23375436    -0.18600
H39         H  0.20202442  0.68996785  0.23332223     0.04000
H40         H  0.31722486  0.79812379  0.24020341     0.04000
C41         C  0.78885768  0.75989378  0.22024646     0.02000
C42         C  0.75856876  0.79296602  0.22246853     0.01900
C43         C  0.72319106  0.78841933  0.25796352    -0.18600
C44         C  0.71788817  0.75184490  0.29066992     0.02000
C45         C  0.75042905  0.72092370  0.29081258     0.01900
C46         C  0.78537941  0.72566900  0.25597991    -0.18600
H47         H  0.80979456  0.70140022  0.25538051     0.04000
H48         H  0.69923887  0.81305005  0.25924895     0.04000
C49         C  0.78524416  0.25692397  0.20918458     0.02000
C50         C  0.75342843  0.22544900  0.19943060     0.01900
C51         C  0.71346801  0.22955970  0.22544133    -0.18600
C52         C  0.70479895  0.26203116  0.26334002     0.02000
C53         C  0.73687465  0.29259947  0.27407311     0.01900
C54         C  0.77656054  0.28914577  0.24760812    -0.18600
H55         H  0.80150516  0.31160050  0.25801563     0.04000
H56         H  0.68934699  0.20533775  0.21862883     0.04000
O57         O  0.53861021  0.73263630  0.43816753    -0.82100
C58         C  0.49645023  0.87490793  0.56724985     0.97300
O59         O  0.52977945  0.87257020  0.53852056    -0.71200
O60         O  0.56202156  0.80197552  0.56881998    -0.74800
Al61       Al  0.55096979  0.82371884  0.50022654     1.49000
C62         C  0.57140107  0.76382283  0.57578938     0.92500
O63         O  0.46376552  0.74050717  0.56372482    -0.81000
O64         O  0.44107211  0.79588116  0.42279936    -0.74600
Al65       Al  0.50144769  0.73902011  0.50072031     1.90100
O66         O  0.42150261  0.78761360  0.52836625    -0.73700
O67         O  0.47817795  0.86762819  0.44268748    -0.73500
O68         O  0.46350583  0.85476201  0.55321168    -0.79200
O69         O  0.54423289  0.84732859  0.43111173    -0.77400
O70         O  0.50241358  0.79549484  0.49579044    -1.13500
O71         O  0.58386381  0.78195989  0.46477354    -0.72700
C72         C  0.57487306  0.75060134  0.43509222     0.98000
C73         C  0.42852348  0.76021572  0.56384822     0.94400
Al74       Al  0.45490049  0.82435905  0.48751537     1.55600
O75         O  0.55103454  0.73505804  0.55003678    -0.77300
C76         C  0.51210270  0.86708285  0.41509678     0.98600
C77         C  0.43391457  0.75659169  0.42016446     0.93500
O78         O  0.45253253  0.73117686  0.45200181    -0.82600
O79         O  0.76669622  0.96438592  0.06069721    -0.82100
C80         C  0.62600336  0.01026071  0.93099097     0.97300
O81         O  0.62769654  0.97753472  0.96001959    -0.71200
O82         O  0.69694694  0.93970432  0.93208156    -0.74800
Al83       Al  0.67450927  0.95507278  0.99959263     1.49000
C84         C  0.73554493  0.93136170  0.92356609     0.92500
O85         O  0.76164360  0.03759060  0.93273997    -0.81000
O86         O  0.70604443  0.06446776  0.07423214    -0.74600
Al87       Al  0.76168903  0.00127580  0.99717065     1.90100
O88         O  0.71748924  0.08337357  0.96827622    -0.73700
O89         O  0.63163691  0.03121063  0.05414884    -0.73500
O90         O  0.64784812  0.04260146  0.94287235    -0.79200
O91         O  0.64921634  0.96526788  0.06780760    -0.77400
O92         O  0.70490509  0.00241168  0.00228327    -1.13500
O93         O  0.71412556  0.92197639  0.03728174    -0.72700
C94         C  0.74658701  0.92928257  0.06553618     0.98000
C95         C  0.74308485  0.07341475  0.93106266     0.94400
Al96       Al  0.67787510  0.05130281  0.00926198     1.55600
O97         O  0.76445362  0.95155240  0.94889638    -0.77300
C98         C  0.62886367  0.99778143  0.08179947     0.98600
C99         C  0.74569390  0.07082834  0.07632064     0.93500
O100        O  0.77091263  0.05084963  0.04472096    -0.82600
O101        O  0.24321542  0.96311682  0.93706543    -0.82100
C102        C  0.37860631  0.01249165  0.07491603     0.97300
O103        O  0.37728130  0.97893811  0.04695980    -0.71200
O104        O  0.30495051  0.94720731  0.07601641    -0.74800
Al105      Al  0.32982448  0.95543237  0.00828671     1.49000
C106        C  0.26677775  0.93524251  0.07945786     0.92500
O107        O  0.23994580  0.03861248  0.06143117    -0.81000
O108        O  0.30483102  0.06021127  0.92781162    -0.74600
Al109      Al  0.24402276  0.00127139  0.99950576     1.90100
O110        O  0.28909347  0.08362404  0.03284228    -0.73700
O111        O  0.37568506  0.02740044  0.95101679    -0.73500
O112        O  0.35737240  0.04432228  0.06135910    -0.79200
O113        O  0.35584870  0.96118391  0.94020322    -0.77400
O114        O  0.30098141  0.00253138  0.00061495    -1.13500
O115        O  0.28980742  0.91991215  0.97209992    -0.72700
C116        C  0.26095250  0.92691330  0.93813414     0.98000
C117        C  0.25798111  0.07472810  0.06358200     0.94400
Al118      Al  0.32954860  0.05035901  0.99388304     1.55600
O119        O  0.23860440  0.95219599  0.04957731    -0.77300
C120        C  0.37517017  0.99357331  0.92309216     0.98600
C121        C  0.26657408  0.06990775  0.92221946     0.93500
O122        O  0.23798480  0.05057022  0.94974686    -0.82600
O123        O  0.55469354  0.26567069  0.54108167    -0.82100
C124        C  0.50164472  0.12377591  0.43188803     0.97300
O125        O  0.53539367  0.14477870  0.43899142    -0.71200
O126        O  0.58231900  0.21012652  0.46181660    -0.74800
Al127      Al  0.54993851  0.17306881  0.50473462     1.49000
C128        C  0.57186671  0.23521934  0.42530215     0.92500
O129        O  0.45205417  0.26111993  0.45129705    -0.81000
O130        O  0.42395368  0.21563947  0.54841273    -0.74600
Al131      Al  0.50318962  0.25825254  0.49660313     1.90100
O132        O  0.43407800  0.19405591  0.44314436    -0.73700
O133        O  0.46756457  0.14962827  0.57722044    -0.73500
O134        O  0.47206182  0.12508068  0.46715628    -0.79200
O135        O  0.52999709  0.12790627  0.54971831    -0.77400
O136        O  0.50193263  0.20212101  0.50396821    -1.13500
O137        O  0.56821074  0.20046509  0.56827001    -0.72700
C138        C  0.57536385  0.23989557  0.57054237     0.98000
C139        C  0.42888242  0.23210340  0.43053276     0.94400
Al140      Al  0.45335975  0.17355774  0.50882834     1.55600
O141        O  0.53681718  0.25494891  0.42961383    -0.77300
C142        C  0.49950315  0.12626477  0.58326345     0.98600
C143        C  0.43384465  0.24980333  0.57195317     0.93500
O144        O  0.46923087  0.26802944  0.56182753    -0.82600
C145        C  0.49955319  0.99695253  0.25481519    -0.02800
C146        C  0.50055998  0.99274927  0.75238082    -0.02800
O147        O  0.74581698  0.53464269  0.56308830    -0.82100
C148        C  0.87571851  0.49428845  0.41010988     0.97300
O149        O  0.87569874  0.52485268  0.44355613    -0.71200
O150        O  0.80435450  0.56324130  0.42628613    -0.74800
Al151      Al  0.83113970  0.54596323  0.48945954     1.49000
C152        C  0.76518788  0.57156391  0.42385468     0.92500
O153        O  0.73576568  0.46487852  0.43392092    -0.81000
O154        O  0.80822058  0.43310231  0.55567343    -0.74600
Al155      Al  0.74435553  0.49971843  0.49801565     1.90100
O156        O  0.78604207  0.41915605  0.45193201    -0.73700
O157        O  0.87878433  0.46929599  0.52684988    -0.73500
O158        O  0.85224412  0.46239469  0.41825378    -0.79200
O159        O  0.85960131  0.53241337  0.55443829    -0.77400
O160        O  0.80097286  0.49848537  0.49175481    -1.13500
O161        O  0.79440044  0.57885801  0.53292902    -0.72700
C162        C  0.76518799  0.57002325  0.56611097     0.98000
C163        C  0.75282120  0.42886313  0.42679257     0.94400
Al164      Al  0.82894157  0.44992784  0.48828313     1.55600
O165        O  0.73802771  0.55068354  0.45205744    -0.77300
C166        C  0.88099071  0.49924204  0.56113287     0.98600
C167        C  0.76953643  0.42671236  0.56687497     0.93500
O168        O  0.74060793  0.44903023  0.54500412    -0.82600
O169        O  0.03944367  0.76454973  0.06412637    -0.82100
C170        C  0.00001065  0.63397218  0.91387906     0.97300
O171        O  0.02830640  0.63192633  0.94974485    -0.71200
O172        O  0.06538239  0.70327506  0.92970356    -0.74800
Al173      Al  0.04932972  0.67719041  0.99387458     1.49000
C174        C  0.07135812  0.74251499  0.92411140     0.92500
O175        O  0.96535207  0.76861797  0.93802745    -0.81000
O176        O  0.93610349  0.69771131  0.06213699    -0.74600
Al177      Al  0.00189276  0.76262889  0.00089682     1.90100
O178        O  0.92087539  0.71746804  0.95900423    -0.73700
O179        O  0.97360800  0.62783893  0.03251154    -0.73500
O180        O  0.96654782  0.65461088  0.92401209    -0.79200
O181        O  0.03650297  0.64889389  0.05987470    -0.77400
O182        O  0.00145496  0.70615475  0.99690007    -1.13500
O183        O  0.08244804  0.71511249  0.03461118    -0.72700
C184        C  0.07535028  0.74609399  0.06539966     0.98000
C185        C  0.92981986  0.74986915  0.93207217     0.94400
Al186      Al  0.95315814  0.67677981  0.99461784     1.55600
O187        O  0.05069506  0.76951734  0.95214272    -0.77300
C188        C  0.00392458  0.62569154  0.06585109     0.98600
C189        C  0.93077359  0.73644004  0.07346688     0.93500
O190        O  0.95284427  0.76514053  0.05011284    -0.82600
O191        O  0.96806074  0.24712667  0.06352732    -0.82100
C192        C  0.00634245  0.37435340  0.90826255     0.97300
O193        O  0.97548981  0.37306439  0.94127944    -0.71200
O194        O  0.94028294  0.29893785  0.92163418    -0.74800
Al195      Al  0.95552702  0.32778169  0.98568192     1.49000
C196        C  0.93562856  0.25913457  0.91863344     0.92500
O197        O  0.04177980  0.23381903  0.93632723    -0.81000
O198        O  0.07077306  0.31135573  0.05326458    -0.74600
Al199      Al  0.00461423  0.24400119  0.99868907     1.90100
O200        O  0.08385224  0.28874182  0.94971902    -0.73700
O201        O  0.03045137  0.37867053  0.02414748    -0.73500
O202        O  0.03867503  0.35181341  0.91583680    -0.79200
O203        O  0.96750223  0.35783977  0.05167975    -0.77400
O204        O  0.00435831  0.30004136  0.98966638    -1.13500
O205        O  0.92276469  0.29013078  0.02693348    -0.72700
C206        C  0.93236560  0.26586346  0.06482507     0.98000
C207        C  0.07668174  0.25341678  0.92785973     0.94400
Al208      Al  0.05204199  0.33007052  0.98584314     1.55600
O209        O  0.95545629  0.23444181  0.95054084    -0.77300
C210        C  0.00083138  0.37986609  0.05916555     0.98600
C211        C  0.07679839  0.27354046  0.06695061     0.93500
O212        O  0.05408860  0.24377067  0.04701064    -0.82600
O213        O  0.26642774  0.53552078  0.43164975    -0.82100
C214        C  0.12368395  0.49780013  0.56519619     0.97300
O215        O  0.12563171  0.52654272  0.53008677    -0.71200
O216        O  0.19593856  0.56627098  0.56028235    -0.74800
Al217      Al  0.17498366  0.54697580  0.49252324     1.49000
C218        C  0.23514338  0.57247289  0.56947135     0.92500
O219        O  0.26180148  0.46588230  0.56473706    -0.81000
O220        O  0.20379808  0.43191410  0.43021032    -0.74600
Al221      Al  0.26118419  0.50058818  0.49812986     1.90100
O222        O  0.21356357  0.42102721  0.53670772    -0.73700
O223        O  0.13164140  0.46974683  0.44716079    -0.73500
O224        O  0.14589797  0.46497941  0.55861215    -0.79200
O225        O  0.15329781  0.53240213  0.42245987    -0.77400
O226        O  0.20457116  0.49941129  0.49486389    -1.13500
O227        O  0.21586329  0.57845061  0.45668946    -0.72700
C228        C  0.24623942  0.57012042  0.42542411     0.98000
C229        C  0.24122738  0.43114421  0.57066288     0.94400
Al230      Al  0.17597398  0.45088523  0.49334365     1.55600
O231        O  0.26361241  0.55124241  0.54438902    -0.77300
C232        C  0.13371571  0.49832727  0.41172163     0.98600
C233        C  0.24353881  0.42781591  0.42500183     0.93500
O234        O  0.26930147  0.45027738  0.45266893    -0.82600
C235        C  0.01031861  0.50006191  0.24145317    -0.02800
C236        C  0.00010852  0.50847786  0.74347313    -0.02800
C237        C  0.24745672  0.21457553  0.21301226     0.02000
C238        C  0.21733547  0.24801792  0.21476847     0.01900
C239        C  0.22504855  0.28344000  0.24824566    -0.18600
C240        C  0.26200172  0.28693072  0.27970670     0.02000
C241        C  0.29223349  0.25398824  0.27758613     0.01900
C242        C  0.28497203  0.21877033  0.24363278    -0.18600
H243        H  0.30911278  0.19438910  0.24108659     0.04000
H244        H  0.20197296  0.30893326  0.24947084     0.04000
C245        C  0.10283258  0.47758424  0.65982462    -0.20600
C246        C  0.09620887  0.50337668  0.61433547    -0.07200
C247        C  0.06596407  0.53632582  0.61878443     0.13700
C248        C  0.04215168  0.54049163  0.66642062    -0.20700
C249        C  0.04259506  0.50987713  0.70816332    -0.07200
C250        C  0.07780244  0.48120218  0.70743795     0.13700
C251        C  0.09363068  0.45681369  0.75554190    -0.24000
H252        H  0.12877842  0.45502458  0.65900195     0.15000
H253        H  0.01869579  0.56525873  0.66792046     0.15000
C254        C  0.05605266  0.56611281  0.57288334    -0.24000
H255        H  0.09136976  0.42220219  0.74725460     0.05200
H256        H  0.07700074  0.46422850  0.79383453     0.08400
H257        H  0.12769693  0.46495768  0.76240300     0.08400
H258        H  0.04673712  0.54756817  0.53640325     0.08400
H259        H  0.08410252  0.58658486  0.56386188     0.08400
H260        H  0.02910805  0.58759740  0.58279447     0.05200
C261        C  0.05591183  0.45980019  0.30583730    -0.20600
C262        C  0.05401201  0.49537725  0.27126178    -0.07200
C263        C  0.09094819  0.52226266  0.27088545     0.13700
C264        C  0.11791642  0.52178682  0.31667287    -0.20700
C265        C  0.11164719  0.49233917  0.35890637    -0.07200
C266        C  0.08371457  0.45773058  0.34935846     0.13700
C267        C  0.08016500  0.41960625  0.38598778    -0.24000
H268        H  0.03219026  0.43509944  0.30249223     0.15000
H269        H  0.14329409  0.54515723  0.31984158     0.15000
C270        C  0.10485189  0.55001062  0.22444282    -0.24000
H271        H  0.05795961  0.39511220  0.36977236     0.05200
H272        H  0.06757806  0.42919481  0.42631614     0.08400
H273        H  0.11184359  0.40441539  0.38990390     0.08400
H274        H  0.10738766  0.58364393  0.23757037     0.08400
H275        H  0.08407831  0.54782072  0.18885165     0.08400
H276        H  0.13702763  0.53988158  0.21068060     0.05200
C277        C  0.26273846  0.40045599  0.33382851    -0.20600
C278        C  0.25872917  0.39327275  0.38948921    -0.07200
C279        C  0.26079095  0.35133967  0.40919902     0.13700
C280        C  0.26448547  0.31740575  0.37256208    -0.20700
C281        C  0.26643862  0.32423975  0.31658257    -0.07200
C282        C  0.26702772  0.36647592  0.29708463     0.13700
C283        C  0.27124239  0.37676720  0.23780002    -0.24000
H284        H  0.26073219  0.43261470  0.31873587     0.15000
H285        H  0.26292079  0.28524015  0.38760685     0.15000
C286        C  0.25630175  0.34201992  0.46868799    -0.24000
H287        H  0.29898402  0.39831426  0.23157248     0.05200
H288        H  0.24192121  0.39288315  0.22396999     0.08400
H289        H  0.27649958  0.34829242  0.21211356     0.08400
H290        H  0.22413266  0.35146770  0.48287010     0.08400
H291        H  0.28094642  0.35978791  0.49176338     0.08400
H292        H  0.26010629  0.30769777  0.47726591     0.05200
C293        C  0.97885084  0.39934855  0.15415158    -0.20600
C294        C  0.00594349  0.40639386  0.10924138    -0.07200
C295        C  0.03962641  0.43610543  0.11516579     0.13700
C296        C  0.04292614  0.45942984  0.16321968    -0.20700
C297        C  0.01135269  0.45844683  0.20461389    -0.07200
C298        C  0.98212133  0.42340327  0.20258686     0.13700
C299        C  0.95703014  0.40656061  0.25020951    -0.24000
H300        H  0.95552701  0.37382087  0.15216837     0.15000
H301        H  0.06809772  0.48268423  0.16556019     0.15000
C302        C  0.07134417  0.44589261  0.07048149    -0.24000
H303        H  0.96485598  0.37256325  0.25593148     0.05200
H304        H  0.92232929  0.40886947  0.24216402     0.08400
H305        H  0.96439875  0.42232059  0.28897708     0.08400
H306        H  0.05420857  0.45590412  0.03354959     0.08400
H307        H  0.09129686  0.41768961  0.06171783     0.08400
H308        H  0.09347329  0.47215548  0.08155356     0.05200
C309        C  0.00380124  0.42967364  0.77114006    -0.20600
C310        C  0.99606714  0.47226793  0.78721234    -0.07200
C311        C  0.98527987  0.47842284  0.84387522     0.13700
C312        C  0.99349870  0.44655167  0.88095695    -0.20700
C313        C  0.00517855  0.40614669  0.86488445    -0.07200
C314        C  0.00912453  0.39684120  0.80926115     0.13700
C315        C  0.01893310  0.35252723  0.79028591    -0.24000
H316        H  0.00861491  0.42234659  0.72874974     0.15000
H317        H  0.98785494  0.45263551  0.92381538     0.15000
C318        C  0.96104949  0.51454487  0.87003407    -0.24000
H319        H  0.02029214  0.35032925  0.74543025     0.05200
H320        H  0.99385544  0.33029486  0.80504004     0.08400
H321        H  0.05034887  0.34276274  0.80625962     0.08400
H322        H  0.93234724  0.50169388  0.89112906     0.08400
H323        H  0.94857216  0.53790257  0.84263688     0.08400
H324        H  0.98112426  0.53050756  0.90097801     0.05200
C325        C  0.10952144  0.23383781  0.14419125    -0.20600
C326        C  0.11305936  0.26501190  0.10388115    -0.07200
C327        C  0.15188801  0.28840921  0.09914882     0.13700
C328        C  0.18485176  0.28118375  0.13562577    -0.20700
C329        C  0.18105173  0.25096767  0.17651481    -0.07200
C330        C  0.14299676  0.22688887  0.18105531     0.13700
C331        C  0.13712320  0.19513891  0.22571015    -0.24000
H332        H  0.08012459  0.21578087  0.14780683     0.15000
H333        H  0.21422756  0.29941445  0.13236529     0.15000
C334        C  0.15988713  0.32057587  0.05508216    -0.24000
H335        H  0.10488603  0.18035312  0.22481514     0.05200
H336        H  0.14121598  0.21105623  0.26556996     0.08400
H337        H  0.16088009  0.16948951  0.22132964     0.08400
H338        H  0.15422409  0.30588730  0.01485135     0.08400
H339        H  0.19327322  0.33260020  0.05521382     0.08400
H340        H  0.13897587  0.34848867  0.06098392     0.05200
C341        C  0.98210040  0.52822213  0.15034362    -0.20600
C342        C  0.00252746  0.53798836  0.20041594    -0.07200
C343        C  0.01093174  0.58222024  0.20881082     0.13700
C344        C  0.01260478  0.60966587  0.16371308    -0.20700
C345        C  0.00098526  0.59587805  0.11175568    -0.07200
C346        C  0.98352476  0.55504379  0.10564902     0.13700
C347        C  0.96794681  0.53847655  0.05170611    -0.24000
H348        H  0.96607594  0.49810027  0.14442895     0.15000
H349        H  0.02191448  0.64260692  0.16931555     0.15000
C350        C  0.01456517  0.60252792  0.26368038    -0.24000
H351        H  0.95840235  0.50450206  0.05367203     0.05200
H352        H  0.99374694  0.54128363  0.02084780     0.08400
H353        H  0.93964846  0.55657302  0.03860639     0.08400
H354        H  0.04580882  0.59633817  0.28161193     0.08400
H355        H  0.98778415  0.59208146  0.28993928     0.08400
H356        H  0.01223642  0.63762827  0.26124571     0.05200
C357        C  0.97664597  0.61594289  0.81881462    -0.20600
C358        C  0.00582444  0.61074310  0.86153959    -0.07200
C359        C  0.04062108  0.58312569  0.85274357     0.13700
C360        C  0.03907445  0.55492351  0.80929800    -0.20700
C361        C  0.00394254  0.55224478  0.77381257    -0.07200
C362        C  0.97698134  0.58869781  0.77287936     0.13700
C363        C  0.95071164  0.60230358  0.72522286    -0.24000
H364        H  0.95325700  0.64107367  0.82133988     0.15000
H365        H  0.06393345  0.53160298  0.80654643     0.15000
C366        C  0.07852901  0.58035879  0.89002621    -0.24000
H367        H  0.91661851  0.60535593  0.73682026     0.05200
H368        H  0.95337430  0.58117847  0.68977351     0.08400
H369        H  0.96202419  0.63405124  0.71190967     0.08400
H370        H  0.06837993  0.56823741  0.93022161     0.08400
H371        H  0.09397201  0.61202033  0.89405201     0.08400
H372        H  0.10322585  0.55825194  0.87434486     0.05200
C373        C  0.97434601  0.47719056  0.65237104    -0.20600
C374        C  0.96325362  0.49948562  0.70097058    -0.07200
C375        C  0.91882147  0.50818815  0.70685737     0.13700
C376        C  0.89296580  0.50882419  0.66014257    -0.20700
C377        C  0.90849374  0.49557524  0.60928010    -0.07200
C378        C  0.94895663  0.47703785  0.60628420     0.13700
C379        C  0.96675610  0.45879551  0.55419743    -0.24000
H380        H  0.00464160  0.46126507  0.64856878     0.15000
H381        H  0.85999362  0.51879424  0.66355461     0.15000
C382        C  0.89686373  0.51312963  0.76074178    -0.24000
H383        H  0.00021703  0.44803563  0.55867612     0.05200
H384        H  0.96649519  0.48329828  0.52210837     0.08400
H385        H  0.94749265  0.43091249  0.54130525     0.08400
H386        H  0.86161696  0.51197472  0.75652120     0.08400
H387        H  0.90406530  0.54397127  0.77943554     0.08400
H388        H  0.90556767  0.48655245  0.78755304     0.05200
C389        C  0.94805862  0.50714085  0.38039827    -0.20600
C390        C  0.90738266  0.49510937  0.36554019    -0.07200
C391        C  0.89809101  0.48979350  0.31013239     0.13700
C392        C  0.93105013  0.49534993  0.27106976    -0.20700
C393        C  0.97395833  0.50350549  0.28609849    -0.07200
C394        C  0.98031242  0.51448479  0.34266675     0.13700
C395        C  0.01721607  0.53783423  0.36864665    -0.24000
H396        H  0.95426435  0.51329695  0.42299787     0.15000
H397        H  0.92371327  0.49042571  0.22878467     0.15000
C398        C  0.85371276  0.47826763  0.29234697    -0.24000
H399        H  0.00515961  0.56672486  0.38965634     0.05200
H400        H  0.04142295  0.54968229  0.34142942     0.08400
H401        H  0.03224266  0.51754678  0.39961911     0.08400
H402        H  0.83100960  0.50303046  0.30619882     0.08400
H403        H  0.84418080  0.44728133  0.31001370     0.08400
H404        H  0.85164391  0.47548784  0.24761440     0.05200
C405        C  0.49236805  0.10587514  0.68118816    -0.20600
C406        C  0.50073288  0.09454694  0.62706986    -0.07200
C407        C  0.51295707  0.05292788  0.61517201     0.13700
C408        C  0.51581780  0.02384931  0.65683494    -0.20700
C409        C  0.50235471  0.03191767  0.71137951    -0.07200
C410        C  0.49438807  0.07584868  0.72368726     0.13700
C411        C  0.48905494  0.09376358  0.77999422    -0.24000
H412        H  0.48519260  0.13873032  0.69060357     0.15000
H413        H  0.52963047  0.99407703  0.64482097     0.15000
C414        C  0.52180509  0.03790735  0.55786581    -0.24000
H415        H  0.51487221  0.11720739  0.78798050     0.05200
H416        H  0.49016615  0.06983098  0.81185605     0.08400
H417        H  0.45787773  0.11013345  0.78353338     0.08400
H418        H  0.55099267  0.05338612  0.54152142     0.08400
H419        H  0.49411607  0.04530588  0.53196903     0.08400
H420        H  0.52685063  0.00308061  0.55541236     0.05200
C421        C  0.48403976  0.05392571  0.39645007    -0.20600
C422        C  0.49773261  0.09454020  0.38501495    -0.07200
C423        C  0.50408929  0.10614166  0.33032046     0.13700
C424        C  0.50014962  0.07494654  0.28895942    -0.20700
C425        C  0.49296559  0.03162127  0.30101052    -0.07200
C426        C  0.47920349  0.02303563  0.35640799     0.13700
C427        C  0.45674467  0.98419377  0.37908647    -0.24000
H428        H  0.47604740  0.04622479  0.43808417     0.15000
H429        H  0.50602363  0.08398128  0.24738327     0.15000
C430        C  0.51450080  0.15128391  0.31547605    -0.24000
H431        H  0.47653050  0.96961164  0.41098695     0.05200
H432        H  0.44785779  0.95973528  0.35045214     0.08400
H433        H  0.42610566  0.99393645  0.39824995     0.08400
H434        H  0.54521281  0.16105464  0.33377460     0.08400
H435        H  0.48888172  0.17258431  0.33052398     0.08400
H436        H  0.51741919  0.15522221  0.27096140     0.05200
C437        C  0.39876242  0.26956344  0.35012339    -0.20600
C438        C  0.39322625  0.24124422  0.39336032    -0.07200
C439        C  0.35375695  0.21912465  0.39894126     0.13700
C440        C  0.32202003  0.22457599  0.36040455    -0.20700
C441        C  0.32780794  0.25176639  0.31664073    -0.07200
C442        C  0.36644724  0.27477470  0.31123032     0.13700
C443        C  0.37404804  0.30342071  0.26363638    -0.24000
H444        H  0.42886708  0.28631405  0.34565857     0.15000
H445        H  0.29211106  0.20727972  0.36425716     0.15000
C446        C  0.34405700  0.18984673  0.44568855    -0.24000
H447        H  0.40629090  0.31819266  0.26477468     0.05200
H448        H  0.35017795  0.32919475  0.26375785     0.08400
H449        H  0.37127438  0.28486903  0.22545571     0.08400
H450        H  0.35022299  0.20637415  0.48456707     0.08400
H451        H  0.36367014  0.16077548  0.44260829     0.08400
H452        H  0.31015695  0.17936809  0.44617103     0.05200
C453        C  0.39120606  0.99868301  0.17235832    -0.20600
C454        C  0.40608807  0.01436503  0.12282156    -0.07200
C455        C  0.44696643  0.03177526  0.11971874     0.13700
C456        C  0.47390201  0.02821422  0.16416576    -0.20700
C457        C  0.46276021  0.00504688  0.21202288    -0.07200
C458        C  0.41800700  0.99644811  0.21807082     0.13700
C459        C  0.39653258  0.98765428  0.27127813    -0.24000
H460        H  0.35810651  0.98864733  0.17540274     0.15000
H461        H  0.50454512  0.04374170  0.16020893     0.15000
C462        C  0.46234560  0.05378359  0.06912442    -0.24000
H463        H  0.40433066  0.01318062  0.30056637     0.05200
H464        H  0.40480261  0.95608955  0.28612770     0.08400
H465        H  0.36123188  0.98747479  0.26763798     0.08400
H466        H  0.44190054  0.08164405  0.06104918     0.08400
H467        H  0.46051323  0.03153627  0.03425534     0.08400
H468        H  0.49586775  0.06501675  0.07266098     0.05200
C469        C  0.42600598  0.01801959  0.78612709    -0.20600
C470        C  0.45733614  0.98628507  0.78425878    -0.07200
C471        C  0.45067707  0.95019039  0.81909750     0.13700
C472        C  0.42136803  0.95316272  0.86176288    -0.20700
C473        C  0.39891980  0.99040673  0.87151534    -0.07200
C474        C  0.39857016  0.02198238  0.83109350     0.13700
C475        C  0.36921957  0.05948133  0.83439277    -0.24000
H476        H  0.42457303  0.04151123  0.75472257     0.15000
H477        H  0.41873403  0.92748614  0.89067498     0.15000
C478        C  0.47717952  0.91030429  0.81723028    -0.24000
H479        H  0.37310710  0.08070873  0.79896000     0.05200
H480        H  0.37612502  0.07865521  0.87111543     0.08400
H481        H  0.33568473  0.04810179  0.83497473     0.08400
H482        H  0.51099981  0.91801163  0.82452805     0.08400
H483        H  0.47287509  0.89331316  0.77826087     0.08400
H484        H  0.46769084  0.88737299  0.84915695     0.05200
C485        C  0.23808182  0.18364957  0.12080321    -0.20600
C486        C  0.24275270  0.17684720  0.17644078    -0.07200
C487        C  0.24507072  0.13442566  0.19544227     0.13700
C488        C  0.24615994  0.10057273  0.15784115    -0.20700
C489        C  0.24431970  0.10812030  0.10208048    -0.07200
C490        C  0.23765576  0.14988091  0.08374898     0.13700
C491        C  0.23052757  0.15913310  0.02480678    -0.24000
H492        H  0.23674451  0.21573619  0.10567205     0.15000
H493        H  0.25091072  0.06843844  0.17182989     0.15000
C494        C  0.24632805  0.12444928  0.25505976    -0.24000
H495        H  0.22095589  0.19260608  0.01896742     0.05200
H496        H  0.20449321  0.13859799  0.00896025     0.08400
H497        H  0.26013482  0.15351175  0.00120370     0.08400
H498        H  0.21895885  0.13956074  0.27620041     0.08400
H499        H  0.27646176  0.13582733  0.27333266     0.08400
H500        H  0.24431781  0.08974105  0.26227514     0.05200
C501        C  0.60351588  0.02702733  0.17067468    -0.20600
C502        C  0.60049691  0.99598247  0.12975950    -0.07200
C503        C  0.57136401  0.96248058  0.13609542     0.13700
C504        C  0.54309158  0.96337728  0.17972348    -0.20700
C505        C  0.54218274  0.99641138  0.21933558    -0.07200
C506        C  0.57693789  0.02615983  0.21730708     0.13700
C507        C  0.59064448  0.05480005  0.26308829    -0.24000
H508        H  0.62830296  0.05105966  0.16742387     0.15000
H509        H  0.51934572  0.93870745  0.18082333     0.15000
C510        C  0.56803538  0.92661275  0.09538793    -0.24000
H511        H  0.62519909  0.05020686  0.27061119     0.05200
H512        H  0.57480571  0.04786250  0.30194446     0.08400
H513        H  0.58574462  0.08849297  0.25199696     0.08400
H514        H  0.59785937  0.90784234  0.09507007     0.08400
H515        H  0.56234240  0.93950549  0.05442309     0.08400
H516        H  0.54142011  0.90443369  0.10508332     0.05200
C517        C  0.60980920  0.01218329  0.83123484    -0.20600
C518        C  0.59573969  0.01082002  0.88538210    -0.07200
C519        C  0.55218219  0.00871209  0.89611385     0.13700
C520        C  0.52390231  0.00477364  0.85324298    -0.20700
C521        C  0.53642172  0.00046791  0.79744064    -0.07200
C522        C  0.58083324  0.00887119  0.78722704     0.13700
C523        C  0.59841615  0.01736878  0.73140524    -0.24000
H524        H  0.64362669  0.01629610  0.82340631     0.15000
H525        H  0.49122238  0.00761896  0.86556768     0.15000
C526        C  0.53497568  0.01200288  0.95336021    -0.24000
H527        H  0.63375374  0.02001156  0.73141181     0.05200
H528        H  0.58619448  0.04809947  0.71668841     0.08400
H529        H  0.58988971  0.99188966  0.70263879     0.08400
H530        H  0.54561586  0.04236278  0.97209875     0.08400
H531        H  0.54659296  0.98516579  0.97785305     0.08400
H532        H  0.49959499  0.01098315  0.95472386     0.05200
C533        C  0.53200016  0.89937977  0.65265559    -0.20600
C534        C  0.49642623  0.90047535  0.61814262    -0.07200
C535        C  0.46069990  0.92406022  0.63435975     0.13700
C536        C  0.46295633  0.94880745  0.68129369    -0.20700
C537        C  0.50006488  0.95184828  0.71454822    -0.07200
C538        C  0.53377832  0.92290218  0.70174709     0.13700
C539        C  0.57086935  0.91311667  0.73787840    -0.24000
H540        H  0.55839921  0.87881377  0.64191127     0.15000
H541        H  0.43625224  0.96962371  0.68913118     0.15000
C542        C  0.42077661  0.92581394  0.60059080    -0.24000
H543        H  0.57084496  0.87856417  0.74644064     0.05200
H544        H  0.56974780  0.92906344  0.77738243     0.08400
H545        H  0.60142285  0.92103860  0.71721951     0.08400
H546        H  0.40515604  0.89412979  0.59926936     0.08400
H547        H  0.42891670  0.93620815  0.55888724     0.08400
H548        H  0.39705383  0.94842881  0.61748035     0.05200
C549        C  0.54042004  0.95480920  0.32150115    -0.20600
C550        C  0.50595646  0.95374090  0.28433914    -0.07200
C551        C  0.48269008  0.91457491  0.28041634     0.13700
C552        C  0.48649764  0.88525191  0.32313166    -0.20700
C553        C  0.51501734  0.89242296  0.36594676    -0.07200
C554        C  0.54413877  0.92601428  0.36327911     0.13700
C555        C  0.57598805  0.93458251  0.40770256    -0.24000
H556        H  0.56186058  0.98161208  0.32210545     0.15000
H557        H  0.46636101  0.85712116  0.32377112     0.15000
C558        C  0.45497982  0.90094474  0.23369981    -0.24000
H559        H  0.59493185  0.96389744  0.40025649     0.05200
H560        H  0.59858099  0.90775380  0.41054301     0.08400
H561        H  0.55899534  0.93865622  0.44700701     0.08400
H562        H  0.45310441  0.92420923  0.20089272     0.08400
H563        H  0.42218999  0.89345161  0.24808422     0.08400
H564        H  0.46834665  0.87150881  0.21559558     0.05200
C565        C  0.72707814  0.36913512  0.29750016    -0.20600
C566        C  0.73173332  0.32701531  0.31523855    -0.07200
C567        C  0.73631132  0.31931697  0.37115550     0.13700
C568        C  0.73721461  0.35371322  0.40737123    -0.20700
C569        C  0.73589008  0.39594580  0.38935215    -0.07200
C570        C  0.72899967  0.40372746  0.33396280     0.13700
C571        C  0.72635191  0.44834136  0.31296314    -0.24000
H572        H  0.72380060  0.37502753  0.25454519     0.15000
H573        H  0.74273552  0.34756641  0.44993010     0.15000
C574        C  0.74372859  0.27570532  0.39382914    -0.24000
H575        H  0.72157605  0.44885754  0.26848134     0.05200
H576        H  0.75625483  0.46591865  0.32214944     0.08400
H577        H  0.69903231  0.46480470  0.33252603     0.08400
H578        H  0.74640346  0.25077968  0.36226631     0.08400
H579        H  0.71703439  0.26714084  0.42146072     0.08400
H580        H  0.77396784  0.27568136  0.41695146     0.05200
C581        C  0.66573440  0.21813139  0.32873700    -0.20600
C582        C  0.66713906  0.25612944  0.30002882    -0.07200
C583        C  0.63419011  0.28608145  0.30850328     0.13700
C584        C  0.60272521  0.27839007  0.34862449    -0.20700
C585        C  0.60278493  0.24100343  0.37948807    -0.07200
C586        C  0.63436479  0.20973952  0.36755247     0.13700
C587        C  0.63625415  0.16685337  0.39461353    -0.24000
H588        H  0.69064010  0.19493098  0.32168096     0.15000
H589        H  0.57837379  0.30200926  0.35619668     0.15000
C590        C  0.63058003  0.32557777  0.27509211    -0.24000
H591        H  0.66111953  0.14613616  0.37638103     0.05200
H592        H  0.60555370  0.14983443  0.38979296     0.08400
H593        H  0.64445989  0.17039969  0.43798286     0.08400
H594        H  0.65539131  0.32742709  0.24299055     0.08400
H595        H  0.63331537  0.35398499  0.30167644     0.08400
H596        H  0.59903746  0.32591511  0.25496617     0.05200
C597        C  0.87277850  0.29781364  0.11542086    -0.20600
C598        C  0.89986007  0.26261892  0.10931178    -0.07200
C599        C  0.89122788  0.22606881  0.14047696     0.13700
C600        C  0.85467903  0.22517716  0.17469948    -0.20700
C601        C  0.82617417  0.25969390  0.17750373    -0.07200
C602        C  0.83595193  0.29668623  0.14744056     0.13700
C603        C  0.80638863  0.33444701  0.14525429    -0.24000
H604        H  0.87954770  0.32652460  0.09288320     0.15000
H605        H  0.84766140  0.19701659  0.19811326     0.15000
C606        C  0.91933030  0.18772382  0.13630572    -0.24000
H607        H  0.81637990  0.35744546  0.11364773     0.05200
H608        H  0.80642739  0.35205156  0.18416847     0.08400
H609        H  0.77346258  0.32394543  0.13551965     0.08400
H610        H  0.95222416  0.19626900  0.14887665     0.08400
H611        H  0.91993075  0.17583965  0.09390696     0.08400
H612        H  0.90769115  0.16166429  0.16273427     0.05200
C613        C  0.75379816  0.14657682  0.19474585    -0.20600
C614        C  0.76079772  0.18530824  0.16770695    -0.07200
C615        C  0.76960658  0.18410081  0.11133928     0.13700
C616        C  0.77136915  0.14467624  0.08417958    -0.20700
C617        C  0.76042855  0.10670645  0.11049574    -0.07200
C618        C  0.75195144  0.10768581  0.16660733     0.13700
C619        C  0.73936974  0.06788725  0.19642767    -0.24000
H620        H  0.74693167  0.14711820  0.23781595     0.15000
H621        H  0.77629931  0.14417385  0.04066234     0.15000
C622        C  0.77314898  0.22345980  0.07743342    -0.24000
H623        H  0.73414458  0.07409297  0.24027374     0.05200
H624        H  0.76496956  0.04391475  0.19199940     0.08400
H625        H  0.70928239  0.05465116  0.17980036     0.08400
H626        H  0.80639296  0.22696860  0.06239688     0.08400
H627        H  0.76402390  0.25246657  0.09992649     0.08400
H628        H  0.75131324  0.22088846  0.04235995     0.05200
C629        C  0.68532952  0.74184316  0.38187277    -0.20600
C630        C  0.67938234  0.74670627  0.32609919    -0.07200
C631        C  0.63744099  0.74352323  0.30527352     0.13700
C632        C  0.60249648  0.73998619  0.34142743    -0.20700
C633        C  0.60894395  0.73709510  0.39743458    -0.07200
C634        C  0.65106731  0.73469407  0.41705440     0.13700
C635        C  0.66085789  0.72521679  0.47539894    -0.24000
H636        H  0.71709179  0.74339078  0.39846953     0.15000
H637        H  0.57021799  0.74178097  0.32622790     0.15000
C638        C  0.62947980  0.74346355  0.24524540    -0.24000
H639        H  0.68143174  0.69670723  0.47733072     0.05200
H640        H  0.63176764  0.71841828  0.49967835     0.08400
H641        H  0.67822028  0.75236502  0.49386821     0.08400
H642        H  0.64769720  0.71734782  0.22569929     0.08400
H643        H  0.63942990  0.77415690  0.22736229     0.08400
H644        H  0.59516457  0.73855215  0.23609991     0.05200
C645        C  0.72264761  0.64895867  0.31871792    -0.20600
C646        C  0.75012211  0.68380097  0.32806705    -0.07200
C647        C  0.77855104  0.68254265  0.37205552     0.13700
C648        C  0.77953668  0.64646983  0.40467714    -0.20700
C649        C  0.75420821  0.61052919  0.39364460    -0.07200
C650        C  0.72471919  0.61201270  0.35087148     0.13700
C651        C  0.69724130  0.57414544  0.33766282    -0.24000
H652        H  0.70075247  0.65010811  0.28506483     0.15000
H653        H  0.80189330  0.64552176  0.43791194     0.15000
C654        C  0.80866594  0.71890535  0.38425324    -0.24000
H655        H  0.67649153  0.58019706  0.30234606     0.05200
H656        H  0.67653954  0.56638320  0.37292503     0.08400
H657        H  0.71774386  0.54649263  0.32795049     0.08400
H658        H  0.79068979  0.74879425  0.39009503     0.08400
H659        H  0.83170629  0.72301134  0.35038702     0.08400
H660        H  0.82729113  0.71324829  0.42155249     0.05200
C661        C  0.75471077  0.81981084  0.12838853    -0.20600
C662        C  0.76062370  0.82919985  0.18322518    -0.07200
C663        C  0.76819051  0.87212323  0.19847477     0.13700
C664        C  0.76678998  0.90448867  0.15890590    -0.20700
C665        C  0.75845615  0.89498967  0.10425947    -0.07200
C666        C  0.75386542  0.85161019  0.08895573     0.13700
C667        C  0.74736984  0.83810533  0.03088071    -0.24000
H668        H  0.74942341  0.78713479  0.11636458     0.15000
H669        H  0.77036443  0.93737152  0.17128735     0.15000
C670        C  0.77792576  0.88480770  0.25591135    -0.24000
H671        H  0.74873764  0.80309924  0.02604667     0.05200
H672        H  0.77251442  0.85237821  0.00471147     0.08400
H673        H  0.71540819  0.84766004  0.01691671     0.08400
H674        H  0.80941793  0.90110612  0.25718725     0.08400
H675        H  0.77922918  0.85729842  0.28356118     0.08400
H676        H  0.75308205  0.90691095  0.27112729     0.05200
C677        C  0.85864608  0.71977721  0.10624714    -0.20600
C678        C  0.89437674  0.74679453  0.10969370    -0.07200
C679        C  0.89343838  0.78144809  0.14627998     0.13700
C680        C  0.85774190  0.78644597  0.18080685    -0.20700
C681        C  0.82319111  0.75782844  0.17880672    -0.07200
C682        C  0.82312885  0.72490017  0.13981450     0.13700
C683        C  0.78564271  0.69493874  0.13312163    -0.24000
H684        H  0.85845392  0.69408519  0.07682865     0.15000
H685        H  0.85729903  0.81186632  0.21053646     0.15000
C686        C  0.93038530  0.81195182  0.15060231    -0.24000
H687        H  0.79027116  0.67292006  0.09831614     0.05200
H688        H  0.75610784  0.71313343  0.12583155     0.08400
H689        H  0.78122006  0.67517922  0.16968393     0.08400
H690        H  0.93490161  0.82888783  0.11171705     0.08400
H691        H  0.95989765  0.79439447  0.16045901     0.08400
H692        H  0.92491599  0.83614378  0.18275018     0.05200
C693        C  0.28903920  0.63637798  0.30436792    -0.20600
C694        C  0.26118835  0.67139181  0.30750209    -0.07200
C695        C  0.23079321  0.67302748  0.34955112     0.13700
C696        C  0.22727875  0.63920657  0.38510661    -0.20700
C697        C  0.25461466  0.60357536  0.38315632    -0.07200
C698        C  0.28616700  0.60239979  0.34186203     0.13700
C699        C  0.31625680  0.56565470  0.33674421    -0.24000
H700        H  0.31280899  0.63552455  0.27231191     0.15000
H701        H  0.20236052  0.64172369  0.41551384     0.15000
C702        C  0.20194998  0.71060560  0.35973475    -0.24000
H703        H  0.33889993  0.56989354  0.30238068     0.05200
H704        H  0.29790742  0.53590128  0.32971203     0.08400
H705        H  0.33508941  0.56275779  0.37439178     0.08400
H706        H  0.20876563  0.73808277  0.33330614     0.08400
H707        H  0.20603551  0.72192255  0.40206589     0.08400
H708        H  0.16819535  0.70080381  0.35401625     0.05200
C709        C  0.32371930  0.73950946  0.36279228    -0.20600
C710        C  0.33266275  0.73432929  0.30755301    -0.07200
C711        C  0.37572952  0.73092500  0.29033620     0.13700
C712        C  0.40874333  0.73505767  0.32854481    -0.20700
C713        C  0.39958406  0.74217742  0.38348187    -0.07200
C714        C  0.35648471  0.74365939  0.40080297     0.13700
C715        C  0.34471855  0.75228756  0.45898013    -0.24000
H716        H  0.29085586  0.74275647  0.37591425     0.15000
H717        H  0.44175578  0.73460654  0.31520608     0.15000
C718        C  0.38691314  0.72346102  0.23172727    -0.24000
H719        H  0.30969918  0.75060944  0.46588326     0.05200
H720        H  0.35539729  0.78470381  0.47031255     0.08400
H721        H  0.35989215  0.72851461  0.48548173     0.08400
H722        H  0.37632952  0.75061426  0.20707921     0.08400
H723        H  0.37108408  0.69395363  0.21717558     0.08400
H724        H  0.42185828  0.71999222  0.22560051     0.05200
C725        C  0.14527217  0.76273665  0.18977150    -0.20600
C726        C  0.18585563  0.75515247  0.16668505    -0.07200
C727        C  0.18934936  0.75144538  0.10980591     0.13700
C728        C  0.15274438  0.75478951  0.07798001    -0.20700
C729        C  0.11169407  0.75870681  0.10094346    -0.07200
C730        C  0.10808738  0.76423794  0.15755531     0.13700
C731        C  0.06512117  0.76963302  0.18406793    -0.24000
H732        H  0.14253832  0.76608336  0.23333471     0.15000
H733        H  0.15598251  0.75059896  0.03451450     0.15000
C734        C  0.23056418  0.74092257  0.08117312    -0.24000
H735        H  0.06782867  0.77325496  0.22865133     0.05200
H736        H  0.04471972  0.74148141  0.17552778     0.08400
H737        H  0.04954132  0.79844038  0.16803392     0.08400
H738        H  0.25673821  0.73364768  0.10926357     0.08400
H739        H  0.24032427  0.76798299  0.05540089     0.08400
H740        H  0.22597512  0.71241694  0.05515952     0.05200
C741        C  0.22433226  0.84961107  0.17554855    -0.20600
C742        C  0.25692548  0.81916082  0.16957639    -0.07200
C743        C  0.29022545  0.82661566  0.13193883     0.13700
C744        C  0.29120344  0.86459113  0.10369889    -0.20700
C745        C  0.25948817  0.89555599  0.11007063    -0.07200
C746        C  0.22505854  0.88772878  0.14565013     0.13700
C747        C  0.19042123  0.91997180  0.15361165    -0.24000
H748        H  0.19881629  0.84393672  0.20447111     0.15000
H749        H  0.31743545  0.86984805  0.07562296     0.15000
C750        C  0.32522462  0.79528217  0.11923758    -0.24000
H751        H  0.16642192  0.90929321  0.18397518     0.05200
H752        H  0.17379123  0.92520502  0.11474407     0.08400
H753        H  0.20449225  0.95043497  0.16788388     0.08400
H754        H  0.32118069  0.76444113  0.13972959     0.08400
H755        H  0.35650998  0.80911052  0.13098355     0.08400
H756        H  0.32576806  0.78855536  0.07505173     0.05200
C757        C  0.35622982  0.72076500  0.68011747    -0.20600
C758        C  0.32240802  0.74963550  0.67542380    -0.07200
C759        C  0.32341832  0.78011434  0.63417606     0.13700
C760        C  0.35855160  0.78208651  0.59988130    -0.20700
C761        C  0.39326280  0.75395050  0.60402813    -0.07200
C762        C  0.39187461  0.72255859  0.64474366     0.13700
C763        C  0.42740338  0.69121550  0.65123453    -0.24000
H764        H  0.35489693  0.69720933  0.71185304     0.15000
H765        H  0.35851381  0.80671532  0.56952934     0.15000
C766        C  0.28717057  0.81064960  0.62540372    -0.24000
H767        H  0.42072393  0.66872624  0.68471578     0.05200
H768        H  0.45758080  0.70827485  0.66057494     0.08400
H769        H  0.43138069  0.67246911  0.61335503     0.08400
H770        H  0.28508847  0.83322172  0.65971994     0.08400
H771        H  0.25658475  0.79301933  0.62145286     0.08400
H772        H  0.29176118  0.82973401  0.58814864     0.05200
C773        C  0.25861238  0.68385618  0.62123218    -0.20600
C774        C  0.25716738  0.67832766  0.67755875    -0.07200
C775        C  0.25335295  0.63640372  0.69803040     0.13700
C776        C  0.24763233  0.60199153  0.66201799    -0.20700
C777        C  0.24729977  0.60804964  0.60593636    -0.07200
C778        C  0.25419120  0.64933192  0.58535412     0.13700
C779        C  0.25478090  0.65748711  0.52541862    -0.24000
H780        H  0.26106153  0.71558667  0.60504131     0.15000
H781        H  0.24282309  0.57032079  0.67788626     0.15000
C782        C  0.25535086  0.62671043  0.75756437    -0.24000
H783        H  0.26173133  0.69127726  0.51610888     0.05200
H784        H  0.22307110  0.64955236  0.50854150     0.08400
H785        H  0.27968585  0.63782132  0.50548769     0.08400
H786        H  0.26285249  0.65502308  0.78257318     0.08400
H787        H  0.22437618  0.61316111  0.77133783     0.08400
H788        H  0.28087176  0.60316846  0.76470934     0.05200
C789        C  0.25430061  0.81661148  0.87437989    -0.20600
C790        C  0.24369726  0.82567833  0.82099387    -0.07200
C791        C  0.23374244  0.86796237  0.80718163     0.13700
C792        C  0.23732257  0.90053127  0.84660446    -0.20700
C793        C  0.25006157  0.89158621  0.89979099    -0.07200
C794        C  0.25675087  0.84841619  0.91408321     0.13700
C795        C  0.26643771  0.83480922  0.97111056    -0.24000
H796        H  0.26202107  0.78431580  0.88483456     0.15000
H797        H  0.23168100  0.93317257  0.83529573     0.15000
C798        C  0.21963708  0.87870681  0.75093793    -0.24000
H799        H  0.26543984  0.79976099  0.97510622     0.05200
H800        H  0.24244027  0.84819944  0.99963475     0.08400
H801        H  0.29904057  0.84498381  0.98263057     0.08400
H802        H  0.19050294  0.86021346  0.74073983     0.08400
H803        H  0.24527526  0.87095830  0.72156159     0.08400
H804        H  0.21226111  0.91297009  0.74706086     0.05200
C805        C  0.14087351  0.78179951  0.80853757    -0.20600
C806        C  0.17794494  0.75844256  0.81917888    -0.07200
C807        C  0.18060846  0.73417803  0.86676245     0.13700
C808        C  0.14595534  0.73325134  0.90203114    -0.20700
C809        C  0.10802080  0.75445870  0.89035986    -0.07200
C810        C  0.10536927  0.77970545  0.84371224     0.13700
C811        C  0.06484269  0.80241564  0.83002343    -0.24000
H812        H  0.13921267  0.80031461  0.77178044     0.15000
H813        H  0.14783077  0.71384381  0.93808484     0.15000
C814        C  0.21885100  0.70775606  0.88113490    -0.24000
H815        H  0.06799125  0.82010079  0.79143501     0.05200
H816        H  0.05684707  0.82539790  0.86272821     0.08400
H817        H  0.03831260  0.77913116  0.82583544     0.08400
H818        H  0.24565768  0.71086633  0.85198124     0.08400
H819        H  0.20934828  0.67378040  0.88275326     0.08400
H820        H  0.23076237  0.71757349  0.92157453     0.05200
C821        C  0.22379647  0.33715650  0.66573385    -0.20600
C822        C  0.26128021  0.33622053  0.69554329    -0.07200
C823        C  0.29176543  0.36919930  0.68785192     0.13700
C824        C  0.28489800  0.40028428  0.64748961    -0.20700
C825        C  0.24750312  0.40011429  0.61607320    -0.07200
C826        C  0.21579514  0.36839069  0.62761805     0.13700
C827        C  0.17224372  0.36635038  0.60166156    -0.24000
H828        H  0.20029206  0.31221951  0.67192317     0.24600
H829        H  0.30883651  0.42464174  0.64066699     0.15000
C830        C  0.33075355  0.37340506  0.72261165    -0.24000
H831        H  0.15572787  0.39690631  0.60751238     0.05200
H832        H  0.15123027  0.34177613  0.62007762     0.08400
H833        H  0.17488988  0.35795966  0.55817203     0.08400
H834        H  0.35986921  0.37072827  0.69700340     0.08400
H835        H  0.33182978  0.34895317  0.75461546     0.08400
H836        H  0.33076252  0.40492673  0.74295555     0.05200
C837        C  0.37453752  0.27579670  0.70257362    -0.20600
C838        C  0.33204863  0.27136518  0.68487495    -0.07200
C839        C  0.32435927  0.26649364  0.62886813     0.13700
C840        C  0.35888925  0.26585274  0.59256189    -0.20700
C841        C  0.40135693  0.26690132  0.61031325    -0.07200
C842        C  0.40932267  0.27354095  0.66589236     0.13700
C843        C  0.45425498  0.27601843  0.68671471    -0.24000
H844        H  0.38051787  0.27935742  0.74551241     0.15000
H845        H  0.35258975  0.26087901  0.54993473     0.15000
C846        C  0.28060322  0.25840331  0.60590566    -0.24000
H847        H  0.45490405  0.28088075  0.73126659     0.05200
H848        H  0.47126198  0.30306596  0.66744993     0.08400
H849        H  0.47139095  0.24616144  0.67701378     0.08400
H850        H  0.25545621  0.25521914  0.63729917     0.08400
H851        H  0.28078946  0.22828823  0.58230982     0.08400
H852        H  0.27201029  0.28476832  0.57855683     0.05200
C853        C  0.14753385  0.24033910  0.80570999    -0.20600
C854        C  0.18759582  0.24498985  0.83060835    -0.07200
C855        C  0.18975079  0.24378592  0.88769318     0.13700
C856        C  0.15232540  0.23742723  0.91801348    -0.20700
C857        C  0.11195591  0.23714688  0.89363000    -0.07200
C858        C  0.10958568  0.23737004  0.83664808     0.13700
C859        C  0.06703071  0.23706698  0.80888104    -0.24000
H860        H  0.14581729  0.24113601  0.76190119     0.15000
H861        H  0.15421685  0.23829534  0.96188451     0.15000
C862        C  0.23010355  0.25341410  0.91820524    -0.24000
H863        H  0.07064529  0.23828191  0.76416143     0.05200
H864        H  0.04804902  0.26489366  0.82213782     0.08400
H865        H  0.04930247  0.20763776  0.81949302     0.08400
H866        H  0.25624963  0.26475395  0.89159949     0.08400
H867        H  0.24076936  0.22459518  0.93942570     0.08400
H868        H  0.22410443  0.27892461  0.94849513     0.05200
C869        C  0.22619246  0.15138285  0.81966780    -0.20600
C870        C  0.25872822  0.18250226  0.82418928    -0.07200
C871        C  0.29112655  0.17684058  0.86277734     0.13700
C872        C  0.29094233  0.14035971  0.89417767    -0.20700
C873        C  0.25936173  0.10862789  0.88938787    -0.07200
C874        C  0.22613193  0.11442124  0.85211218     0.13700
C875        C  0.19183566  0.08131861  0.84537683    -0.24000
H876        H  0.20111871  0.15583899  0.79036411     0.15000
H877        H  0.31622435  0.13689530  0.92349552     0.15000
C878        C  0.32606474  0.20897087  0.87381776    -0.24000
H879        H  0.16874486  0.09029597  0.81363489     0.05200
H880        H  0.17407636  0.07743424  0.88408600     0.08400
H881        H  0.20641259  0.05054964  0.83362739     0.08400
H882        H  0.32305382  0.23876262  0.85081674     0.08400
H883        H  0.35751285  0.19474996  0.86399999     0.08400
H884        H  0.32548598  0.21784080  0.91739800     0.05200
C885        C  0.68945604  0.25492593  0.61177748    -0.20600
C886        C  0.68634578  0.25109365  0.66817494    -0.07200
C887        C  0.64530497  0.25122055  0.69273288     0.13700
C888        C  0.60872812  0.25141256  0.65996996    -0.20700
C889        C  0.61207453  0.25387157  0.60347773    -0.07200
C890        C  0.65303192  0.25787750  0.57945022     0.13700
C891        C  0.65964038  0.26370974  0.51954336    -0.24000
H892        H  0.72055361  0.25486973  0.59247179     0.15000
H893        H  0.57738822  0.24798170  0.67837228     0.15000
C894        C  0.63983172  0.25115579  0.75336466    -0.24000
H895        H  0.68100222  0.29141909  0.51250719     0.05200
H896        H  0.62960381  0.27031751  0.49821533     0.08400
H897        H  0.67459370  0.23492421  0.50178589     0.08400
H898        H  0.65769985  0.27828260  0.77126457     0.08400
H899        H  0.65158977  0.22108299  0.77048803     0.08400
H900        H  0.60578868  0.25426464  0.76543496     0.05200
C901        C  0.73221172  0.35042069  0.67825837    -0.20600
C902        C  0.75759941  0.31490680  0.66544977    -0.07200
C903        C  0.78304960  0.31562298  0.61809457     0.13700
C904        C  0.78379837  0.35198249  0.58612065    -0.20700
C905        C  0.76030292  0.38839307  0.59985653    -0.07200
C906        C  0.73342369  0.38738282  0.64592858     0.13700
C907        C  0.70775130  0.42559184  0.66212880    -0.24000
H908        H  0.71235467  0.34959741  0.71433650     0.15000
H909        H  0.80391306  0.35215048  0.55018317     0.15000
C910        C  0.80990815  0.27855651  0.59971315    -0.24000
H911        H  0.68908395  0.41983067  0.69978253     0.05200
H912        H  0.68512485  0.43350965  0.62942151     0.08400
H913        H  0.72939107  0.45304442  0.66927968     0.08400
H914        H  0.80035326  0.26882787  0.55823237     0.08400
H915        H  0.80655781  0.25034888  0.62594276     0.08400
H916        H  0.84404092  0.28816609  0.59895958     0.05200
C917        C  0.72769813  0.16885469  0.83830050    -0.20600
C918        C  0.76374118  0.16769861  0.80495669    -0.07200
C919        C  0.79362402  0.13461372  0.81212604     0.13700
C920        C  0.78644102  0.10400427  0.85311761    -0.20700
C921        C  0.74989471  0.10536220  0.88675408    -0.07200
C922        C  0.71981896  0.13854223  0.87804722     0.13700
C923        C  0.67821541  0.14300190  0.90890449    -0.24000
H924        H  0.70524594  0.19450255  0.83330287     0.15000
H925        H  0.80958161  0.07907108  0.85880312     0.15000
C926        C  0.83278186  0.13029763  0.77699933    -0.24000
H927        H  0.65848721  0.16951025  0.89378770     0.05200
H928        H  0.68421426  0.15001477  0.95224319     0.08400
H929        H  0.65879294  0.11384605  0.90386748     0.08400
H930        H  0.86173501  0.13380381  0.80229859     0.08400
H931        H  0.83418703  0.15427703  0.74442243     0.08400
H932        H  0.83293584  0.09847583  0.75747473     0.05200
C933        C  0.82816413  0.23005077  0.86048171    -0.20600
C934        C  0.83617289  0.23293646  0.80461256    -0.07200
C935        C  0.87899433  0.23823089  0.78658781     0.13700
C936        C  0.91166868  0.24428531  0.82471717    -0.20700
C937        C  0.90317183  0.24284258  0.88044904    -0.07200
C938        C  0.86114040  0.23416897  0.89840934     0.13700
C939        C  0.85040939  0.23170004  0.95777687    -0.24000
H940        H  0.79559739  0.22668915  0.87481784     0.15000
H941        H  0.94387129  0.25107258  0.81082687     0.15000
C942        C  0.89142336  0.23766032  0.72754752    -0.24000
H943        H  0.81637086  0.22313820  0.96444955     0.05200
H944        H  0.85628221  0.26290135  0.97737263     0.08400
H945        H  0.87024250  0.20714793  0.97727105     0.08400
H946        H  0.90473051  0.26907664  0.71597283     0.08400
H947        H  0.86437224  0.22988334  0.70057545     0.08400
H948        H  0.91612137  0.21308756  0.72055468     0.05200
C949        C  0.74956488  0.63294012  0.69762261    -0.20600
C950        C  0.75060914  0.67466304  0.67761574    -0.07200
C951        C  0.75436742  0.68082600  0.62115715     0.13700
C952        C  0.75436901  0.64553835  0.58645891    -0.20700
C953        C  0.75442080  0.60372657  0.60616495    -0.07200
C954        C  0.75255599  0.59739667  0.66282244     0.13700
C955        C  0.75652017  0.55435483  0.68842145    -0.24000
H956        H  0.74792780  0.62810549  0.74097153     0.15000
H957        H  0.75728535  0.65083718  0.54322746     0.15000
C958        C  0.76170174  0.72373091  0.59592896    -0.24000
H959        H  0.78438346  0.55439807  0.71592882     0.05200
H960        H  0.76131334  0.52840245  0.65873986     0.08400
H961        H  0.72726483  0.54725160  0.71236131     0.08400
H962        H  0.79155186  0.72309815  0.57145512     0.08400
H963        H  0.76543783  0.74951300  0.62618322     0.08400
H964        H  0.73473227  0.73132939  0.56887100     0.05200
C965        C  0.67905468  0.77588129  0.64453380    -0.20600
C966        C  0.68032003  0.74071344  0.67849280    -0.07200
C967        C  0.64629094  0.71084739  0.67668674     0.13700
C968        C  0.61150951  0.71795043  0.64166762    -0.20700
C969        C  0.60944732  0.75476417  0.60981617    -0.07200
C970        C  0.64481150  0.78342770  0.61042018     0.13700
C971        C  0.64807380  0.82226292  0.57499401    -0.24000
H972        H  0.70527287  0.79850890  0.64571029     0.15000
H973        H  0.58515032  0.69550795  0.64093067     0.15000
C974        C  0.64476027  0.67239797  0.71242234    -0.24000
H975        H  0.67958540  0.83833931  0.57832629     0.05200
H976        H  0.62386030  0.84601595  0.58723027     0.08400
H977        H  0.64431668  0.81315985  0.53193844     0.08400
H978        H  0.67196030  0.67111134  0.74067134     0.08400
H979        H  0.64502317  0.64325846  0.68691029     0.08400
H980        H  0.61502793  0.67279429  0.73710847     0.05200
C981        C  0.82054284  0.76597064  0.87616669    -0.20600
C982        C  0.82719433  0.75950851  0.82041799    -0.07200
C983        C  0.86995002  0.75705756  0.80090973     0.13700
C984        C  0.90405420  0.75811885  0.83789924    -0.20700
C985        C  0.89678410  0.76340336  0.89358583    -0.07200
C986        C  0.85456507  0.76916499  0.91243625     0.13700
C987        C  0.84508788  0.77734445  0.97151352    -0.24000
H988        H  0.78840515  0.76690077  0.89211797     0.15000
H989        H  0.93629962  0.75281708  0.82339318     0.15000
C990        C  0.88108395  0.75293112  0.74168764    -0.24000
H991        H  0.81064338  0.78276847  0.97868031     0.05200
H992        H  0.86282104  0.80595673  0.98543581     0.08400
H993        H  0.85431650  0.74975726  0.99621731     0.08400
H994        H  0.85326128  0.75690584  0.71491015     0.08400
H995        H  0.89553898  0.72138317  0.73380974     0.08400
H996        H  0.90455441  0.77796598  0.73049801     0.05200
C997        C  0.78123471  0.85418267  0.81766475    -0.20600
C998        C  0.75249732  0.81994893  0.82374271    -0.07200
C999        C  0.72095225  0.82183958  0.86476124     0.13700
C1000       C  0.71703443  0.85868988  0.89596160    -0.20700
C1001       C  0.74465956  0.89357500  0.88924853    -0.07200
C1002       C  0.77800978  0.89088762  0.85065119     0.13700
C1003       C  0.80904130  0.92696816  0.84299755    -0.24000
H1004       H  0.80578734  0.85235045  0.78667360     0.15000
H1005       H  0.69191805  0.86019362  0.92626442     0.15000
C1006       C  0.69192443  0.78459402  0.87699401    -0.24000
H1007       H  0.83229475  0.92017773  0.80998365     0.05200
H1008       H  0.82718096  0.93234523  0.88085878     0.08400
H1009       H  0.79153675  0.95630001  0.83262110     0.08400
H1010       H  0.71122243  0.75598194  0.88524487     0.08400
H1011       H  0.67041541  0.77800958  0.84253619     0.08400
H1012       H  0.67150363  0.79065818  0.91311643     0.05200
loop_ 
_geom_bond_atom_site_label_1 
_geom_bond_atom_site_label_2 
_geom_bond_distance 
_geom_bond_site_symmetry_2 
_ccdc_geom_bond_type 
C1            C2   1.418       .  A
C1            C6   1.416       .  A
C1          C982   1.505       .  S
C2            C3   1.401       .  A
C2          C998   1.490       .  S
C3            C4   1.403       .  A
C3            H8   1.086       .  S
C4            C5   1.416       .  A
C4          C966   1.495       .  S
C5            C6   1.414       .  A
C5          C950   1.492       .  S
C6            H7   1.084       .  S
C9           C10   1.420       .  A
C9           C14   1.413       .  A
C9          C934   1.499       .  S
C10          C11   1.413       .  A
C10         C918   1.498       .  S
C11          C12   1.406       .  A
C11          H16   1.084       .  S
C12          C13   1.412       .  A
C12         C886   1.496       .  S
C13          C14   1.409       .  A
C13         C902   1.489       .  S
C14          H15   1.084       .  S
C17          C18   1.412       .  A
C17          C22   1.412       .  A
C17         C870   1.492       .  S
C18          C19   1.405       .  A
C18         C854   1.495       .  S
C19          C20   1.416       .  A
C19          H24   1.085       .  S
C20          C21   1.420       .  A
C20         C822   1.500       .  S
C21          C22   1.410       .  A
C21         C838   1.494       .  S
C22          H23   1.085       .  S
C25          C26   1.408       .  A
C25          C30   1.407       .  A
C25         C806   1.470       .  S
C26          C27   1.399       .  A
C26         C790   1.495       .  S
C27          C28   1.411       .  A
C27          H32   1.084       .  S
C28          C29   1.417       .  A
C28         C758   1.478       .  S
C29          C30   1.405       .  A
C29         C774   1.502       .  S
C30          H31   1.084       .  S
C33          C34   1.415       .  A
C33          C38   1.408       .  A
C33         C726   1.499       .  S
C34          C35   1.410       .  A
C34         C742   1.488       .  S
C35          C36   1.404       .  A
C35          H40   1.085       .  S
C36          C37   1.414       .  A
C36         C710   1.493       .  S
C37          C38   1.415       .  A
C37         C694   1.489       .  S
C38          H39   1.084       .  S
C41          C42   1.415       .  A
C41          C46   1.401       .  A
C41         C681   1.481       .  S
C42          C43   1.416       .  A
C42         C662   1.504       .  S
C43          C44   1.420       .  A
C43          H48   1.084       .  S
C44          C45   1.415       .  A
C44         C630   1.494       .  S
C45          C46   1.396       .  A
C45         C646   1.493       .  S
C46          H47   1.086       .  S
C49          C50   1.423       .  A
C49          C54   1.412       .  A
C49         C601   1.500       .  S
C50          C51   1.410       .  A
C50         C614   1.502       .  S
C51          C52   1.409       .  A
C51          H56   1.084       .  S
C52          C53   1.414       .  A
C52         C582   1.495       .  S
C53          C54   1.406       .  A
C53         C566   1.491       .  S
C54          H55   1.083       .  S
O57          C72   1.269       .  A
O57         Al65   1.939       .  S
C58         C534   1.489       .  S
C58          O68   1.259       .  A
C58          O59   1.261       .  A
O59         Al61   1.921       .  S
O60          C62   1.253       .  A
O60         Al61   1.868       .  S
Al61         O69   1.881       .  S
Al61         O71   1.885       .  S
Al61         O70   1.762       .  S
C62         C969   1.495       .  S
C62          O75   1.275       .  A
O63          C73   1.271       .  A
O63         Al65   1.948       .  S
O64          C77   1.258       .  A
O64         Al74   1.881       .  S
Al65         O78   1.970       .  S
Al65         O75   1.988       .  S
Al65         O70   1.785       .  S
O66          C73   1.256       .  A
O66         Al74   1.855       .  S
O67          C76   1.259       .  A
O67         Al74   1.901       .  S
O68         Al74   1.900       .  S
O69          C76   1.255       .  A
O70         Al74   1.764       .  S
O71          C72   1.259       .  A
C72         C633   1.474       .  S
C73         C761   1.493       .  S
C76         C553   1.460       .  S
C77         C713   1.480       .  S
C77          O78   1.274       .  A
O79          C94   1.276       .  A
O79         Al87   1.967   1_564  S
C80         C518   1.479       .  S
C80          O90   1.259       .  A
C80          O81   1.262   1_545  A
O81         Al83   1.912       .  S
O82          C84   1.256       .  A
O82         Al83   1.868       .  S
Al83         O91   1.884   1_556  S
Al83         O93   1.883   1_556  S
Al83         O92   1.766   1_566  S
C84        C1001   1.485       .  S
C84          O97   1.270       .  A
O85          C95   1.275       .  A
O85         Al87   1.967       .  S
O86          C99   1.259       .  A
O86         Al96   1.881       .  S
Al87        O100   1.970   1_556  S
Al87         O97   1.965   1_545  S
Al87         O92   1.784   1_556  S
O88          C95   1.256       .  A
O88         Al96   1.889   1_556  S
O89          C98   1.262   1_545  A
O89         Al96   1.925       .  S
O90         Al96   1.915   1_556  S
O91          C98   1.256       .  A
O92         Al96   1.770       .  S
O93          C94   1.258       .  A
C94         C665   1.499       .  S
C95         C921   1.505       .  S
C98         C502   1.477       .  S
C99         C617   1.481       .  S
C99         O100   1.274       .  A
O101        C116   1.273       .  A
O101       Al109   1.950   1_565  S
C102        C454   1.470       .  S
C102        O112   1.256       .  A
C102        O103   1.260   1_545  A
O103       Al105   1.917       .  S
O104        C106   1.255       .  A
O104       Al105   1.860       .  S
Al105       O113   1.873   1_554  S
Al105       O115   1.901   1_554  S
Al105       O114   1.755   1_565  S
C106        C745   1.481       .  S
C106        O119   1.277       .  A
O107        C117   1.269       .  A
O107       Al109   1.928   1_554  S
O108        C121   1.249       .  A
O108       Al118   1.841       .  S
Al109       O122   1.998       .  S
Al109       O119   1.992   1_546  S
Al109       O114   1.786   1_556  S
O110        C117   1.263       .  A
O110       Al118   1.903   1_554  S
O111        C120   1.266   1_545  A
O111       Al118   1.928       .  S
O112       Al118   1.899   1_554  S
O113        C120   1.258       .  A
O114       Al118   1.757   1_554  S
O115        C116   1.260       .  A
C116        C793   1.497       .  S
C117        C489   1.477       .  S
C120        C473   1.474       .  S
C121        C873   1.489       .  S
C121        O122   1.275       .  A
O123        C138   1.277       .  A
O123       Al131   1.972       .  S
C124        C422   1.481       .  S
C124        O134   1.268       .  A
C124        O125   1.257       .  A
O125       Al127   1.905       .  S
O126        C128   1.250       .  A
O126       Al127   1.872       .  S
Al127       O135   1.911       .  S
Al127       O137   1.878       .  S
Al127       O136   1.767       .  S
C128        C585   1.496       .  S
C128        O141   1.270       .  A
O129        C139   1.272       .  A
O129       Al131   1.965       .  S
O130        C143   1.259       .  A
O130       Al140   1.884       .  S
Al131       O144   1.949       .  S
Al131       O141   1.958       .  S
Al131       O136   1.780       .  S
O132        C139   1.253       .  A
O132       Al140   1.857       .  S
O133        C142   1.257       .  A
O133       Al140   1.912       .  S
O134       Al140   1.929       .  S
O135        C142   1.262       .  A
O136       Al140   1.768       .  S
O137        C138   1.262       .  A
C138        C889   1.478       .  S
C139        C438   1.483       .  S
C142        C406   1.479       .  S
C143        C841   1.487       .  S
C143        O144   1.270       .  A
C145        C425   1.588   1_565  S
C145        C457   1.594   1_565  S
C145        C505   1.593       .  S
C145        C550   1.564       .  S
C146        C409   1.602   1_565  S
C146        C470   1.575       .  S
C146        C521   1.605   1_565  S
C146        C537   1.588       .  S
O147        C162   1.268       .  A
O147       Al155   1.943       .  S
C148        C390   1.477       .  S
C148        O158   1.258       .  A
C148        O149   1.265       .  A
O149       Al151   1.913       .  S
O150        C152   1.259       .  A
O150       Al151   1.864       .  S
Al151       O159   1.895       .  S
Al151       O161   1.881       .  S
Al151       O160   1.766       .  S
C152        C649   1.485       .  S
C152        O165   1.278       .  A
O153        C163   1.269       .  A
O153       Al155   1.941       .  S
O154        C167   1.257       .  A
O154       Al164   1.862       .  S
Al155       O168   1.983       .  S
Al155       O165   1.985       .  S
Al155       O160   1.781       .  S
O156        C163   1.257       .  A
O156       Al164   1.883       .  S
O157        C166   1.266       .  A
O157       Al164   1.930       .  S
O158       Al164   1.915       .  S
O159        C166   1.258       .  A
O160       Al164   1.770       .  S
O161        C162   1.256       .  A
C162        C953   1.486       .  S
C163        C569   1.484       .  S
C166        C377   1.480       .  S
C167        C905   1.487       .  S
C167        O168   1.277       .  A
O169        C184   1.271       .  A
O169       Al177   1.964       .  S
C170        C358   1.493       .  S
C170        O180   1.261   1_455  A
C170        O171   1.261       .  A
O171       Al173   1.907       .  S
O172        C174   1.258       .  A
O172       Al173   1.855       .  S
Al173       O181   1.903   1_556  S
Al173       O183   1.872   1_556  S
Al173       O182   1.763       .  S
C174        C809   1.464       .  S
C174        O187   1.271       .  A
O175        C185   1.267       .  A
O175       Al177   1.948   1_656  S
O176        C189   1.262       .  A
O176       Al186   1.866   1_554  S
Al177       O190   1.955   1_455  S
Al177       O187   1.952   1_554  S
Al177       O182   1.782   1_554  S
O178        C185   1.252       .  A
O178       Al186   1.868       .  S
O179        C188   1.265   1_655  A
O179       Al186   1.925   1_554  S
O180       Al186   1.920       .  S
O181        C188   1.261       .  A
O182       Al186   1.771   1_455  S
O183        C184   1.254       .  A
C184        C729   1.494       .  S
C185        C985   1.478       .  S
C188        C345   1.479       .  S
C189        C678   1.482       .  S
C189        O190   1.274       .  A
O191        C206   1.269       .  A
O191       Al199   1.965   1_654  S
C192        C313   1.473       .  S
C192        O202   1.257       .  A
C192        O193   1.261   1_455  A
O193       Al195   1.905       .  S
O194        C196   1.264       .  A
O194       Al195   1.883       .  S
Al195       O203   1.919   1_556  S
Al195       O205   1.867   1_556  S
Al195       O204   1.772   1_655  S
C196        C937   1.480       .  S
C196        O209   1.279       .  A
O197        C207   1.270       .  A
O197       Al199   1.951       .  S
O198        C211   1.257       .  A
O198       Al208   1.871   1_554  S
Al199       O212   1.965   1_556  S
Al199       O209   1.974   1_455  S
Al199       O204   1.782       .  S
O200        C207   1.254       .  A
O200       Al208   1.864       .  S
O201        C210   1.265       .  A
O201       Al208   1.920   1_554  S
O202       Al208   1.915       .  S
O203        C210   1.265   1_655  A
O204       Al208   1.766       .  S
O205        C206   1.252       .  A
C206        C598   1.497       .  S
C207        C857   1.479       .  S
C210        C294   1.498       .  S
C211        C326   1.490       .  S
C211        O212   1.273       .  A
O213        C228   1.275       .  A
O213       Al221   1.988       .  S
C214        C246   1.493       .  S
C214        O224   1.260       .  A
C214        O215   1.259       .  A
O215       Al217   1.909       .  S
O216        C218   1.265       .  A
O216       Al217   1.898       .  S
Al217       O225   1.917       .  S
Al217       O227   1.841       .  S
Al217       O226   1.769       .  S
C218        C777   1.484       .  S
C218        O231   1.274       .  A
O219        C229   1.276       .  A
O219       Al221   1.982       .  S
O220        C233   1.259       .  A
O220       Al230   1.878       .  S
Al221       O234   1.954       .  S
Al221       O231   1.959       .  S
Al221       O226   1.777       .  S
O222        C229   1.250       .  A
O222       Al230   1.862       .  S
O223        C232   1.261       .  A
O223       Al230   1.905       .  S
O224       Al230   1.913       .  S
O225        C232   1.261       .  A
O226       Al230   1.768       .  S
O227        C228   1.250       .  A
C228        C697   1.509       .  S
C229        C825   1.508       .  S
C232        C265   1.492       .  S
C233        C278   1.473       .  S
C233        O234   1.271       .  A
C235        C262   1.568       .  S
C235        C297   1.592       .  S
C235        C342   1.594       .  S
C235        C393   1.584   1_455  S
C236        C249   1.587       .  S
C236        C310   1.581   1_455  S
C236        C361   1.570       .  S
C236        C374   1.590   1_455  S
C237        C238   1.420       .  A
C237        C242   1.408       .  A
C237        C486   1.496       .  S
C238        C239   1.406       .  A
C238        C329   1.488       .  S
C239        C240   1.403       .  A
C239        H244   1.085       .  S
C240        C241   1.411       .  A
C240        C281   1.489       .  S
C241        C242   1.405       .  A
C241        C441   1.483       .  S
C242        H243   1.083       .  S
C245        C246   1.409       .  A
C245        C250   1.414       .  A
C245        H252   1.084       .  S
C246        C247   1.414       .  A
C247        C248   1.395       .  A
C247        C254   1.512       .  S
C248        C249   1.417       .  A
C248        H253   1.076       .  S
C249        C250   1.431       .  A
C250        C251   1.508       .  S
C251        H255   1.110       .  S
C251        H256   1.101       .  S
C251        H257   1.111       .  S
C254        H258   1.111       .  S
C254        H259   1.109       .  S
C254        H260   1.111       .  S
C261        C262   1.416       .  A
C261        C266   1.391       .  A
C261        H268   1.076       .  S
C262        C263   1.430       .  A
C263        C264   1.418       .  A
C263        C270   1.507       .  S
C264        C265   1.413       .  A
C264        H269   1.084       .  S
C265        C266   1.414       .  A
C266        C267   1.512       .  S
C267        H271   1.111       .  S
C267        H272   1.110       .  S
C267        H273   1.110       .  S
C270        H274   1.109       .  S
C270        H275   1.100       .  S
C270        H276   1.110       .  S
C277        C278   1.400       .  A
C277        C282   1.406       .  A
C277        H284   1.085       .  S
C278        C279   1.413       .  A
C279        C280   1.402       .  A
C279        C286   1.506       .  S
C280        C281   1.402       .  A
C280        H285   1.083       .  S
C281        C282   1.418       .  A
C282        C283   1.507       .  S
C283        H287   1.110       .  S
C283        H288   1.110       .  S
C283        H289   1.108       .  S
C286        H290   1.107       .  S
C286        H291   1.110       .  S
C286        H292   1.111       .  S
C293        C294   1.410   1_655  A
C293        C298   1.417       .  A
C293        H300   1.085       .  S
C294        C295   1.415       .  A
C295        C296   1.397       .  A
C295        C302   1.512       .  S
C296        C297   1.418       .  A
C296        H301   1.075       .  S
C297        C298   1.431   1_455  A
C298        C299   1.508       .  S
C299        H303   1.111       .  S
C299        H304   1.110       .  S
C299        H305   1.102       .  S
C302        H306   1.111       .  S
C302        H307   1.109       .  S
C302        H308   1.111       .  S
C309        C310   1.419   1_455  A
C309        C314   1.415       .  A
C309        H316   1.081       .  S
C310        C311   1.450       .  A
C311        C312   1.390       .  A
C311        C318   1.512       .  S
C312        C313   1.382   1_655  A
C312        H317   1.088       .  S
C313        C314   1.408       .  A
C314        C315   1.503       .  S
C315        H319   1.111       .  S
C315        H320   1.111   1_455  S
C315        H321   1.110       .  S
C318        H322   1.112       .  S
C318        H323   1.080       .  S
C318        H324   1.110       .  S
C325        C326   1.407       .  A
C325        C330   1.414       .  A
C325        H332   1.083       .  S
C326        C327   1.424       .  A
C327        C328   1.397       .  A
C327        C334   1.511       .  S
C328        C329   1.397       .  A
C328        H333   1.085       .  S
C329        C330   1.414       .  A
C330        C331   1.504       .  S
C331        H335   1.111       .  S
C331        H336   1.110       .  S
C331        H337   1.107       .  S
C334        H338   1.109       .  S
C334        H339   1.111       .  S
C334        H340   1.109       .  S
C341        C342   1.428   1_655  A
C341        C346   1.395       .  A
C341        H348   1.081       .  S
C342        C343   1.431       .  A
C343        C344   1.415       .  A
C343        C350   1.500       .  S
C344        C345   1.403       .  A
C344        H349   1.085       .  S
C345        C346   1.403   1_455  A
C346        C347   1.512       .  S
C347        H351   1.111       .  S
C347        H352   1.111       .  S
C347        H353   1.109       .  S
C350        H354   1.097       .  S
C350        H355   1.107   1_455  S
C350        H356   1.111       .  S
C357        C358   1.413   1_655  A
C357        C362   1.419       .  A
C357        H364   1.084       .  S
C358        C359   1.415       .  A
C359        C360   1.390       .  A
C359        C366   1.512       .  S
C360        C361   1.415       .  A
C360        H365   1.076       .  S
C361        C362   1.431   1_455  A
C362        C363   1.508       .  S
C363        H367   1.109       .  S
C363        H368   1.100       .  S
C363        H369   1.110       .  S
C366        H370   1.110       .  S
C366        H371   1.110       .  S
C366        H372   1.111       .  S
C373        C374   1.429       .  A
C373        C378   1.394       .  A
C373        H380   1.080   1_655  S
C374        C375   1.428       .  A
C375        C376   1.416       .  A
C375        C382   1.502       .  S
C376        C377   1.406       .  A
C376        H381   1.085       .  S
C377        C378   1.401       .  A
C378        C379   1.511       .  S
C379        H383   1.111   1_655  S
C379        H384   1.110       .  S
C379        H385   1.109       .  S
C382        H386   1.111       .  S
C382        H387   1.096       .  S
C382        H388   1.108       .  S
C389        C390   1.380       .  A
C389        C394   1.390       .  A
C389        H396   1.088       .  S
C390        C391   1.411       .  A
C391        C392   1.419       .  A
C391        C398   1.504       .  S
C392        C393   1.420       .  A
C392        H397   1.082       .  S
C393        C394   1.453       .  A
C394        C395   1.512   1_655  S
C395        H399   1.112       .  S
C395        H400   1.077       .  S
C395        H401   1.110       .  S
C398        H402   1.110       .  S
C398        H403   1.111       .  S
C398        H404   1.111       .  S
C405        C406   1.405       .  A
C405        C410   1.420       .  A
C405        H412   1.084       .  S
C406        C407   1.398       .  A
C407        C408   1.386       .  A
C407        C414   1.514       .  S
C408        C409   1.431       .  A
C408        H413   1.075   1_545  S
C409        C410   1.439       .  A
C410        C411   1.507       .  S
C411        H415   1.110       .  S
C411        H416   1.095       .  S
C411        H417   1.111       .  S
C414        H418   1.109       .  S
C414        H419   1.109       .  S
C414        H420   1.111       .  S
C421        C422   1.378       .  A
C421        C426   1.392       .  A
C421        H428   1.086       .  S
C422        C423   1.415       .  A
C423        C424   1.419       .  A
C423        C430   1.505       .  S
C424        C425   1.416       .  A
C424        H429   1.082       .  S
C425        C426   1.459       .  A
C426        C427   1.517   1_545  S
C427        H431   1.110       .  S
C427        H432   1.080       .  S
C427        H433   1.112       .  S
C430        H434   1.108       .  S
C430        H435   1.111       .  S
C430        H436   1.111       .  S
C437        C438   1.405       .  A
C437        C442   1.413       .  A
C437        H444   1.084       .  S
C438        C439   1.423       .  A
C439        C440   1.395       .  A
C439        C446   1.511       .  S
C440        C441   1.394       .  A
C440        H445   1.085       .  S
C441        C442   1.414       .  A
C442        C443   1.504       .  S
C443        H447   1.111       .  S
C443        H448   1.108       .  S
C443        H449   1.110       .  S
C446        H450   1.108       .  S
C446        H451   1.109       .  S
C446        H452   1.111       .  S
C453        C454   1.399   1_565  A
C453        C458   1.415       .  A
C453        H460   1.085       .  S
C454        C455   1.393       .  A
C455        C456   1.396       .  A
C455        C462   1.508       .  S
C456        C457   1.433       .  A
C456        H461   1.079       .  S
C457        C458   1.434   1_545  A
C458        C459   1.499       .  S
C459        H463   1.106   1_565  S
C459        H464   1.096       .  S
C459        H465   1.111       .  S
C462        H466   1.110       .  S
C462        H467   1.109       .  S
C462        H468   1.111       .  S
C469        C470   1.407   1_545  A
C469        C474   1.405       .  A
C469        H476   1.077       .  S
C470        C471   1.444       .  A
C471        C472   1.396       .  A
C471        C478   1.512       .  S
C472        C473   1.391       .  A
C472        H477   1.085       .  S
C473        C474   1.415   1_565  A
C474        C475   1.504       .  S
C475        H479   1.111       .  S
C475        H480   1.109       .  S
C475        H481   1.109       .  S
C478        H482   1.102       .  S
C478        H483   1.107       .  S
C478        H484   1.111       .  S
C485        C486   1.402       .  A
C485        C490   1.399       .  A
C485        H492   1.082       .  S
C486        C487   1.422       .  A
C487        C488   1.411       .  A
C487        C494   1.509       .  S
C488        C489   1.401       .  A
C488        H493   1.084       .  S
C489        C490   1.412       .  A
C490        C491   1.506       .  S
C491        H495   1.109       .  S
C491        H496   1.110       .  S
C491        H497   1.107       .  S
C494        H498   1.110       .  S
C494        H499   1.107       .  S
C494        H500   1.111       .  S
C501        C502   1.406   1_545  A
C501        C506   1.417       .  A
C501        H508   1.085       .  S
C502        C503   1.400       .  A
C503        C504   1.391       .  A
C503        C510   1.512       .  S
C504        C505   1.425       .  A
C504        H509   1.073       .  S
C505        C506   1.434   1_565  A
C506        C507   1.506       .  S
C507        H511   1.111       .  S
C507        H512   1.100       .  S
C507        H513   1.110       .  S
C510        H514   1.110       .  S
C510        H515   1.109       .  S
C510        H516   1.111       .  S
C517        C518   1.406       .  A
C517        C522   1.425       .  A
C517        H524   1.083       .  S
C518        C519   1.390       .  A
C519        C520   1.391       .  A
C519        C526   1.513       .  S
C520        C521   1.437       .  A
C520        H525   1.071       .  S
C521        C522   1.436       .  A
C522        C523   1.506       .  S
C523        H527   1.110       .  S
C523        H528   1.108       .  S
C523        H529   1.102   1_545  S
C526        H530   1.111       .  S
C526        H531   1.108   1_545  S
C526        H532   1.110       .  S
C533        C534   1.410       .  A
C533        C538   1.419       .  A
C533        H540   1.085       .  S
C534        C535   1.403       .  A
C535        C536   1.395       .  A
C535        C542   1.511       .  S
C536        C537   1.432       .  A
C536        H541   1.083       .  S
C537        C538   1.433       .  A
C538        C539   1.506       .  S
C539        H543   1.111       .  S
C539        H544   1.095       .  S
C539        H545   1.110       .  S
C542        H546   1.110       .  S
C542        H547   1.111       .  S
C542        H548   1.111       .  S
C549        C550   1.423       .  A
C549        C554   1.385       .  A
C549        H556   1.076       .  S
C550        C551   1.433       .  A
C551        C552   1.414       .  A
C551        C558   1.509       .  S
C552        C553   1.407       .  A
C552        H557   1.085       .  S
C553        C554   1.395       .  A
C554        C555   1.511       .  S
C555        H559   1.111       .  S
C555        H560   1.109       .  S
C555        H561   1.111       .  S
C558        H562   1.099       .  S
C558        H563   1.110       .  S
C558        H564   1.110       .  S
C565        C566   1.409       .  A
C565        C570   1.411       .  A
C565        H572   1.084       .  S
C566        C567   1.413       .  A
C567        C568   1.402       .  A
C567        C574   1.508       .  S
C568        C569   1.407       .  A
C568        H573   1.086       .  S
C569        C570   1.410       .  A
C570        C571   1.505       .  S
C571        H575   1.111       .  S
C571        H576   1.110       .  S
C571        H577   1.110       .  S
C574        H578   1.106       .  S
C574        H579   1.109       .  S
C574        H580   1.111       .  S
C581        C582   1.396       .  A
C581        C586   1.394       .  A
C581        H588   1.086       .  S
C582        C583   1.417       .  A
C583        C584   1.414       .  A
C583        C590   1.503       .  S
C584        C585   1.408       .  A
C584        H589   1.084       .  S
C585        C586   1.429       .  A
C586        C587   1.513       .  S
C587        H591   1.111       .  S
C587        H592   1.106       .  S
C587        H593   1.109       .  S
C590        H594   1.108       .  S
C590        H595   1.110       .  S
C590        H596   1.110       .  S
C597        C598   1.408       .  A
C597        C602   1.395       .  A
C597        H604   1.084       .  S
C598        C599   1.413       .  A
C599        C600   1.419       .  A
C599        C606   1.503       .  S
C600        C601   1.413       .  A
C600        H605   1.083       .  S
C601        C602   1.417       .  A
C602        C603   1.515       .  S
C603        H607   1.111       .  S
C603        H608   1.107       .  S
C603        H609   1.110       .  S
C606        H610   1.110       .  S
C606        H611   1.110       .  S
C606        H612   1.111       .  S
C613        C614   1.410       .  A
C613        C618   1.406       .  A
C613        H620   1.084       .  S
C614        C615   1.418       .  A
C615        C616   1.410       .  A
C615        C622   1.504       .  S
C616        C617   1.405       .  A
C616        H621   1.085       .  S
C617        C618   1.410       .  A
C618        C619   1.508       .  S
C619        H623   1.111       .  S
C619        H624   1.110       .  S
C619        H625   1.110       .  S
C622        H626   1.109       .  S
C622        H627   1.105       .  S
C622        H628   1.111       .  S
C629        C630   1.402       .  A
C629        C634   1.395       .  A
C629        H636   1.080       .  S
C630        C631   1.418       .  A
C631        C632   1.413       .  A
C631        C638   1.506       .  S
C632        C633   1.404       .  A
C632        H637   1.084       .  S
C633        C634   1.413       .  A
C634        C635   1.508       .  S
C635        H639   1.111       .  S
C635        H640   1.108       .  S
C635        H641   1.109       .  S
C638        H642   1.111       .  S
C638        H643   1.108       .  S
C638        H644   1.111       .  S
C645        C646   1.410       .  A
C645        C650   1.416       .  A
C645        H652   1.083       .  S
C646        C647   1.412       .  A
C647        C648   1.398       .  A
C647        C654   1.510       .  S
C648        C649   1.406       .  A
C648        H653   1.084       .  S
C649        C650   1.411       .  A
C650        C651   1.503       .  S
C651        H655   1.111       .  S
C651        H656   1.110       .  S
C651        H657   1.110       .  S
C654        H658   1.109       .  S
C654        H659   1.109       .  S
C654        H660   1.111       .  S
C661        C662   1.398       .  A
C661        C666   1.403       .  A
C661        H668   1.082       .  S
C662        C663   1.421       .  A
C663        C664   1.419       .  A
C663        C670   1.505       .  S
C664        C665   1.407       .  A
C664        H669   1.084       .  S
C665        C666   1.423       .  A
C666        C667   1.509       .  S
C667        H671   1.110       .  S
C667        H672   1.111       .  S
C667        H673   1.106       .  S
C670        H674   1.111       .  S
C670        H675   1.108       .  S
C670        H676   1.110       .  S
C677        C678   1.405       .  A
C677        C682   1.393       .  A
C677        H684   1.085       .  S
C678        C679   1.414       .  A
C679        C680   1.411       .  A
C679        C686   1.505       .  S
C680        C681   1.406       .  A
C680        H685   1.084       .  S
C681        C682   1.412       .  A
C682        C683   1.512       .  S
C683        H687   1.111       .  S
C683        H688   1.109       .  S
C683        H689   1.108       .  S
C686        H690   1.110       .  S
C686        H691   1.111       .  S
C686        H692   1.111       .  S
C693        C694   1.413       .  A
C693        C698   1.422       .  A
C693        H700   1.084       .  S
C694        C695   1.405       .  A
C695        C696   1.389       .  A
C695        C702   1.513       .  S
C696        C697   1.417       .  A
C696        H701   1.083       .  S
C697        C698   1.416       .  A
C698        C699   1.502       .  S
C699        H703   1.111       .  S
C699        H704   1.110       .  S
C699        H705   1.110       .  S
C702        H706   1.107       .  S
C702        H707   1.111       .  S
C702        H708   1.110       .  S
C709        C710   1.400       .  A
C709        C714   1.402       .  A
C709        H716   1.083       .  S
C710        C711   1.417       .  A
C711        C712   1.411       .  A
C711        C718   1.505       .  S
C712        C713   1.402       .  A
C712        H717   1.084       .  S
C713        C714   1.415       .  A
C714        C715   1.505       .  S
C715        H719   1.111       .  S
C715        H720   1.108       .  S
C715        H721   1.110       .  S
C718        H722   1.108       .  S
C718        H723   1.110       .  S
C718        H724   1.111       .  S
C725        C726   1.412       .  A
C725        C730   1.418       .  A
C725        H732   1.084       .  S
C726        C727   1.413       .  A
C727        C728   1.401       .  A
C727        C734   1.506       .  S
C728        C729   1.408       .  A
C728        H733   1.085       .  S
C729        C730   1.412       .  A
C730        C731   1.504       .  S
C731        H735   1.111       .  S
C731        H736   1.110       .  S
C731        H737   1.110       .  S
C734        H738   1.105       .  S
C734        H739   1.108       .  S
C734        H740   1.111       .  S
C741        C742   1.413       .  A
C741        C746   1.414       .  A
C741        H748   1.083       .  S
C742        C743   1.412       .  A
C743        C744   1.389       .  A
C743        C750   1.511       .  S
C744        C745   1.405       .  A
C744        H749   1.085       .  S
C745        C746   1.408       .  A
C746        C747   1.503       .  S
C747        H751   1.111       .  S
C747        H752   1.110       .  S
C747        H753   1.111       .  S
C750        H754   1.105       .  S
C750        H755   1.111       .  S
C750        H756   1.111       .  S
C757        C758   1.408       .  A
C757        C762   1.415       .  A
C757        H764   1.084       .  S
C758        C759   1.405       .  A
C759        C760   1.386       .  A
C759        C766   1.512       .  S
C760        C761   1.413       .  A
C760        H765   1.083       .  S
C761        C762   1.416       .  A
C762        C763   1.504       .  S
C763        H767   1.111       .  S
C763        H768   1.110       .  S
C763        H769   1.110       .  S
C766        H770   1.105       .  S
C766        H771   1.110       .  S
C766        H772   1.111       .  S
C773        C774   1.404       .  A
C773        C778   1.406       .  A
C773        H780   1.081       .  S
C774        C775   1.422       .  A
C775        C776   1.410       .  A
C775        C782   1.506       .  S
C776        C777   1.400       .  A
C776        H781   1.084       .  S
C777        C778   1.415       .  A
C778        C779   1.505       .  S
C779        H783   1.111       .  S
C779        H784   1.107       .  S
C779        H785   1.110       .  S
C782        H786   1.107       .  S
C782        H787   1.110       .  S
C782        H788   1.111       .  S
C789        C790   1.395       .  A
C789        C794   1.400       .  A
C789        H796   1.081       .  S
C790        C791   1.415       .  A
C791        C792   1.415       .  A
C791        C798   1.503       .  S
C792        C793   1.407       .  A
C792        H797   1.084       .  S
C793        C794   1.425       .  A
C794        C795   1.509       .  S
C795        H799   1.110       .  S
C795        H800   1.110       .  S
C795        H801   1.108       .  S
C798        H802   1.110       .  S
C798        H803   1.106       .  S
C798        H804   1.111       .  S
C805        C806   1.407       .  A
C805        C810   1.409       .  A
C805        H812   1.084       .  S
C806        C807   1.410       .  A
C807        C808   1.388       .  A
C807        C814   1.510       .  S
C808        C809   1.401       .  A
C808        H813   1.086       .  S
C809        C810   1.408       .  A
C810        C811   1.504       .  S
C811        H815   1.111       .  S
C811        H816   1.110       .  S
C811        H817   1.111       .  S
C814        H818   1.107       .  S
C814        H819   1.110       .  S
C814        H820   1.111       .  S
C821        C822   1.392       .  A
C821        C826   1.392       .  A
C821        H828   1.085       .  S
C822        C823   1.420       .  A
C823        C824   1.421       .  A
C823        C830   1.504       .  S
C824        C825   1.411       .  A
C824        H829   1.083       .  S
C825        C826   1.434       .  A
C826        C827   1.514       .  S
C827        H831   1.104       .  S
C827        H832   1.111       .  S
C827        H833   1.108       .  S
C830        H834   1.110       .  S
C830        H835   1.109       .  S
C830        H836   1.110       .  S
C837        C838   1.411       .  A
C837        C842   1.415       .  A
C837        H844   1.084       .  S
C838        C839   1.414       .  A
C839        C840   1.401       .  A
C839        C846   1.508       .  S
C840        C841   1.405       .  A
C840        H845   1.083       .  S
C841        C842   1.412       .  A
C842        C843   1.505       .  S
C843        H847   1.111       .  S
C843        H848   1.110       .  S
C843        H849   1.110       .  S
C846        H850   1.106       .  S
C846        H851   1.111       .  S
C846        H852   1.110       .  S
C853        C854   1.409       .  A
C853        C858   1.412       .  A
C853        H860   1.085       .  S
C854        C855   1.413       .  A
C855        C856   1.401       .  A
C855        C862   1.506       .  S
C856        C857   1.406       .  A
C856        H861   1.086       .  S
C857        C858   1.411       .  A
C858        C859   1.505       .  S
C859        H863   1.111       .  S
C859        H864   1.109       .  S
C859        H865   1.110       .  S
C862        H866   1.106       .  S
C862        H867   1.106       .  S
C862        H868   1.111       .  S
C869        C870   1.415       .  A
C869        C874   1.418       .  A
C869        H876   1.083       .  S
C870        C871   1.411       .  A
C871        C872   1.391       .  A
C871        C878   1.512       .  S
C872        C873   1.408       .  A
C872        H877   1.084       .  S
C873        C874   1.409       .  A
C874        C875   1.503       .  S
C875        H879   1.111       .  S
C875        H880   1.110       .  S
C875        H881   1.111       .  S
C878        H882   1.106       .  S
C878        H883   1.110       .  S
C878        H884   1.111       .  S
C885        C886   1.402       .  A
C885        C890   1.402       .  A
C885        H892   1.082       .  S
C886        C887   1.418       .  A
C887        C888   1.409       .  A
C887        C894   1.507       .  S
C888        C889   1.402       .  A
C888        H893   1.085       .  S
C889        C890   1.416       .  A
C890        C891   1.505       .  S
C891        H895   1.111       .  S
C891        H896   1.104       .  S
C891        H897   1.110       .  S
C894        H898   1.110       .  S
C894        H899   1.107       .  S
C894        H900   1.111       .  S
C901        C902   1.411       .  A
C901        C906   1.417       .  A
C901        H908   1.084       .  S
C902        C903   1.411       .  A
C903        C904   1.396       .  A
C903        C910   1.510       .  S
C904        C905   1.406       .  A
C904        H909   1.085       .  S
C905        C906   1.412       .  A
C906        C907   1.503       .  S
C907        H911   1.111       .  S
C907        H912   1.110       .  S
C907        H913   1.110       .  S
C910        H914   1.111       .  S
C910        H915   1.107       .  S
C910        H916   1.110       .  S
C917        C918   1.394       .  A
C917        C922   1.394       .  A
C917        H924   1.084       .  S
C918        C919   1.419       .  A
C919        C920   1.419       .  A
C919        C926   1.504       .  S
C920        C921   1.411       .  A
C920        H925   1.083       .  S
C921        C922   1.431       .  A
C922        C923   1.513       .  S
C923        H927   1.111       .  S
C923        H928   1.109       .  S
C923        H929   1.106       .  S
C926        H930   1.111       .  S
C926        H931   1.108       .  S
C926        H932   1.110       .  S
C933        C934   1.405       .  A
C933        C938   1.405       .  A
C933        H940   1.083       .  S
C934        C935   1.420       .  A
C935        C936   1.408       .  A
C935        C942   1.507       .  S
C936        C937   1.402       .  A
C936        H941   1.084       .  S
C937        C938   1.413       .  A
C938        C939   1.505       .  S
C939        H943   1.110       .  S
C939        H944   1.108       .  S
C939        H945   1.110       .  S
C942        H946   1.110       .  S
C942        H947   1.108       .  S
C942        H948   1.110       .  S
C949        C950   1.408       .  A
C949        C954   1.411       .  A
C949        H956   1.084       .  S
C950        C951   1.414       .  A
C951        C952   1.400       .  A
C951        C958   1.508       .  S
C952        C953   1.408       .  A
C952        H957   1.085       .  S
C953        C954   1.416       .  A
C954        C955   1.507       .  S
C955        H959   1.111       .  S
C955        H960   1.105       .  S
C955        H961   1.110       .  S
C958        H962   1.111       .  S
C958        H963   1.107       .  S
C958        H964   1.110       .  S
C965        C966   1.395       .  A
C965        C970   1.393       .  A
C965        H972   1.085       .  S
C966        C967   1.419       .  A
C967        C968   1.417       .  A
C967        C974   1.504       .  S
C968        C969   1.408       .  A
C968        H973   1.084       .  S
C969        C970   1.426       .  A
C970        C971   1.512       .  S
C971        H975   1.111       .  S
C971        H976   1.109       .  S
C971        H977   1.107       .  S
C974        H978   1.107       .  S
C974        H979   1.111       .  S
C974        H980   1.110       .  S
C981        C982   1.405       .  A
C981        C986   1.401       .  A
C981        H988   1.080       .  S
C982        C983   1.423       .  A
C983        C984   1.412       .  A
C983        C990   1.507       .  S
C984        C985   1.402       .  A
C984        H989   1.084       .  S
C985        C986   1.412       .  A
C986        C987   1.508       .  S
C987        H991   1.107       .  S
C987        H992   1.110       .  S
C987        H993   1.107       .  S
C990        H994   1.107       .  S
C990        H995   1.111       .  S
C990        H996   1.110       .  S
C997        C998   1.409       .  A
C997       C1002   1.415       .  A
C997       H1004   1.083       .  S
C998        C999   1.412       .  A
C999       C1000   1.395       .  A
C999       C1006   1.511       .  S
C1000      C1001   1.405       .  A
C1000      H1005   1.084       .  S
C1001      C1002   1.412       .  A
C1002      C1003   1.504       .  S
C1003      H1007   1.111       .  S
C1003      H1008   1.110       .  S
C1003      H1009   1.110       .  S
C1006      H1010   1.110       .  S
C1006      H1011   1.108       .  S
C1006      H1012   1.111       .  S
