geometry optimzed in LAMMPS
_audit_creation_date              2020-11-30 
_audit_creation_method            'lammps2cif' 
_symmetry_space_group_name_H-M    'P1' 
_symmetry_Int_Tables_number       1 
_symmetry_cell_setting            triclinic 
loop_ 
_symmetry_equiv_pos_as_xyz 
  x,y,z 
_cell_length_a                    28.236797133216797 
_cell_length_b                    28.217485303732616 
_cell_length_c                    32.10196861620587 
_cell_angle_alpha                 90.34647233934918 
_cell_angle_beta                  91.74997161393854 
_cell_angle_gamma                 89.95981464718747 
loop_ 
_atom_site_label 
_atom_site_type_symbol 
_atom_site_fract_x 
_atom_site_fract_y 
_atom_site_fract_z 
_atom_site_charge 
C1          C  0.25611301  0.82785378  0.32844753     0.42040
N2          N  0.29119193  0.76035780  0.32481564     0.00930
C3          C  0.20545681  0.53357341  0.35616016    -0.06940
H4          H  0.15545628  0.65247852  0.46606168     0.06430
C5          C  0.34546935  0.66521069  0.49839973    -0.07290
Co6        Co  0.22478572  0.67578764  0.32256307     0.74180
N7          N  0.19508258  0.66172543  0.41018205    -0.26470
Co8        Co  0.24803049  0.61041266  0.41189719     0.74070
C9          C  0.30437180  0.66125319  0.52505785     0.42150
N10         N  0.38927080  0.70765540  0.40463183     0.00550
N11         N  0.28399239  0.64161280  0.46227869     0.00660
N12         N  0.19537454  0.57068133  0.29426287    -0.47320
H13         H  0.18239740  0.79215148  0.32731637     0.06410
N14         N  0.18632464  0.68595436  0.37584402     0.00940
N15         N  0.29967288  0.55794714  0.41251356     0.00680
C16         C  0.33710485  0.49442435  0.43003917     0.42290
N17         N  0.38153950  0.73431496  0.37177874    -0.25930
C18         C  0.24742915  0.65604299  0.23027890    -0.06850
N19         N  0.29877952  0.80663701  0.32661714    -0.47030
N20         N  0.29368781  0.51416613  0.42592435    -0.47260
C21         C  0.28723656  0.66674835  0.20374854     0.42060
N22         N  0.20866324  0.60126626  0.32442574     0.00930
N23         N  0.39195560  0.65430662  0.31719561    -0.25950
N24         N  0.24569592  0.74884372  0.32461348    -0.26440
N25         N  0.40116071  0.62597030  0.34908093     0.00570
H26         H  0.41753104  0.65787934  0.25477850     0.06460
H27         H  0.40893772  0.53081571  0.42318133     0.06490
N28         N  0.21585589  0.57935415  0.36032997    -0.26490
N29         N  0.32964676  0.65133062  0.46040453    -0.26100
N30         N  0.30693250  0.68219355  0.26760003     0.00930
C31         C  0.12856798  0.70360639  0.41483428     0.42330
C32         C  0.41098426  0.77155868  0.37458618    -0.07360
N33         N  0.34465161  0.56869673  0.40875420    -0.26100
H34         H  0.38173137  0.67440706  0.50654546     0.06480
N35         N  0.14678210  0.71092745  0.37718585    -0.47330
H36         H  0.41627978  0.79507181  0.34884933     0.06460
C37         C  0.44431923  0.60055848  0.29996078     0.42160
C38         C  0.22058551  0.78954419  0.32689852    -0.06850
Co39       Co  0.34308886  0.70856381  0.32013569     0.73820
N40         N  0.42276426  0.72478400  0.42994534    -0.47040
C41         C  0.19272126  0.52715225  0.31259776     0.42430
N42         N  0.32266654  0.68281080  0.22924179    -0.47030
Co43       Co  0.36685890  0.63814842  0.40581930     0.73890
C44         C  0.37087639  0.53063515  0.41822275    -0.07360
C45         C  0.16030069  0.67045667  0.43683093    -0.06920
N46         N  0.26276134  0.66766440  0.26893967    -0.26450
N47         N  0.26785350  0.64625080  0.50028169    -0.47210
H48         H  0.21038162  0.50705820  0.38009492     0.06440
C49         C  0.41778209  0.64121199  0.28500941    -0.07340
Cl50       Cl  0.29558292  0.65846737  0.36518811    -0.50340
C51         C  0.43873253  0.76570515  0.41411741     0.42190
H52         H  0.21174488  0.64513074  0.22171023     0.06400
N53         N  0.43247479  0.59254144  0.33992401    -0.47050
C54         C  0.29261399  0.67518901  0.02307325     0.42040
N55         N  0.27303603  0.64563506  0.96271043     0.00930
C56         C  0.41407967  0.64288080  0.78890074    -0.06940
H57         H  0.40525256  0.79609336  0.84107396     0.06430
C58         C  0.20368045  0.77590487  0.82302107    -0.07290
Co59       Co  0.35710638  0.64345063  0.90730190     0.74180
N60         N  0.36808226  0.73750374  0.86782264    -0.26470
Co61       Co  0.33204911  0.70503608  0.81739829     0.74070
C62         C  0.23544931  0.81731639  0.82270330     0.42150
N63         N  0.17420212  0.67574937  0.87115924     0.00550
N64         N  0.27604645  0.75290706  0.81750035     0.00660
N65         N  0.43012128  0.59970544  0.84698383    -0.47320
H66         H  0.36671595  0.69534232  0.00019419     0.06410
N67         N  0.37583575  0.71386370  0.90258776     0.00940
N68         N  0.29991603  0.67159684  0.76664856     0.00680
C69         C  0.28530170  0.64911319  0.70369095     0.42290
N70         N  0.18338064  0.65524633  0.90730204    -0.25930
C71         C  0.36725857  0.53688841  0.92676062    -0.06850
N72         N  0.25726546  0.65339960  0.00061611    -0.47030
N73         N  0.31824801  0.66904654  0.72934526    -0.47260
C74         C  0.33536482  0.50000052  0.94138197     0.42060
N75         N  0.39460654  0.62968193  0.85265002     0.00930
N76         N  0.21187520  0.57081784  0.86243929    -0.25950
N77         N  0.31745684  0.65926503  0.95934780    -0.26440
N78         N  0.20435768  0.59022326  0.82542155     0.00570
H79         H  0.21061923  0.49915237  0.88471260     0.06460
H80         H  0.20917471  0.62691159  0.71911653     0.06490
N81         N  0.38478220  0.65488714  0.81895377    -0.26490
N82         N  0.23180251  0.73783830  0.81887595    -0.26100
N83         N  0.29477195  0.55944137  0.91851046     0.00930
C84         C  0.42599878  0.77137438  0.90733651     0.42330
C85         C  0.14739437  0.66463180  0.93266818    -0.07360
N86         N  0.25632456  0.65520441  0.76730833    -0.26100
H87         H  0.16613467  0.77412063  0.82797370     0.06480
N88         N  0.40978334  0.73269467  0.92656070    -0.47330
H89         H  0.14298546  0.64979095  0.96329669     0.06460
C90         C  0.19378923  0.51502954  0.81592541     0.42160
C91         C  0.33199580  0.68020128  0.99490441    -0.06850
Co92       Co  0.23997457  0.60789066  0.91343962     0.73820
N93         N  0.13340720  0.69883354  0.87001159    -0.47040
C94         C  0.44437233  0.60691695  0.80751876     0.42430
N95         N  0.29108149  0.51693860  0.93529535    -0.47030
Co96       Co  0.21567972  0.66458305  0.81975827     0.73890
C97         C  0.24389184  0.63972313  0.72884116    -0.07360
C98         C  0.39818715  0.77452724  0.86792216    -0.06920
N99         N  0.33907882  0.57256972  0.91434677    -0.26450
N100        N  0.27958218  0.79960969  0.81907620    -0.47210
H101        H  0.41407737  0.65761379  0.75787127     0.06440
C102        C  0.20489216  0.52416709  0.85965942    -0.07340
Cl103      Cl  0.28615919  0.65536474  0.86456385    -0.50340
C104        C  0.11469957  0.69413363  0.90775150     0.42190
H105        H  0.40514101  0.53976146  0.93222116     0.06400
N106        N  0.19384147  0.55768956  0.79623496    -0.47050
C107        C  0.92322716  0.74960741  0.94229957     0.42040
N108        N  0.87100061  0.77540618  0.98357436     0.00930
C109        C  0.64521921  0.86134193  0.94115232    -0.06940
H110        H  0.76842080  0.93115724  0.84868752     0.06430
C111        C  0.85796158  0.99293863  0.97851383    -0.07290
Co112      Co  0.77384539  0.78731881  0.94448646     0.74180
N113        N  0.77275328  0.87621207  0.89503022    -0.26470
Co114      Co  0.74394982  0.90620843  0.94750448     0.74070
C115        C  0.84870045  0.00744799  0.93532211     0.42150
N116        N  0.88086586  0.89921732  0.04231235     0.00550
N117        N  0.79761556  0.95560171  0.95159723     0.00660
N118        N  0.66259542  0.78318530  0.94139153    -0.47320
H119        H  0.86860892  0.74530405  0.88715379     0.06410
N120        N  0.78397508  0.83093704  0.89339838     0.00940
N121        N  0.71486751  0.93648640  0.99992401     0.00680
C122        C  0.67607814  0.98743910  0.03582115     0.42290
N123        N  0.89216089  0.85399255  0.04333592    -0.25930
C124        C  0.74033969  0.70308102  0.99722133    -0.06850
N125        N  0.91617283  0.76404708  0.98151226    -0.47030
N126        N  0.67682022  0.96387748  0.99912190    -0.47260
C127        C  0.75372404  0.68354834  0.03778149     0.42060
N128        N  0.70176929  0.80928582  0.94410504     0.00930
N129        N  0.80887982  0.83040927  0.08784339    -0.25950
N130        N  0.84691543  0.76953347  0.94791820    -0.26440
N131        N  0.79814626  0.87589050  0.09006268     0.00570
H132        H  0.81329785  0.77442597  0.13295347     0.06460
H133        H  0.73348097  0.98692043  0.08796216     0.06490
N134        N  0.69197944  0.85502715  0.94445507    -0.26490
N135        N  0.82400250  0.96094279  0.98595862    -0.26100
N136        N  0.78930938  0.74956186  0.03041103     0.00930
C137        C  0.79236685  0.85592298  0.83110536     0.42330
C138        C  0.93715067  0.85009519  0.05762491    -0.07360
N139        N  0.74035023  0.94140162  0.03470750    -0.26100
H140        H  0.88603561  0.00382599  0.00015176     0.06480
N141        N  0.79535330  0.81709662  0.85547833    -0.47330
H142        H  0.95449648  0.81725361  0.06627094     0.06460
C143        C  0.79015395  0.84926257  0.15205389     0.42160
C144        C  0.87728310  0.75303928  0.91953796    -0.06850
Co145      Co  0.84038833  0.80181210  0.03637717     0.73820
N146        N  0.91588785  0.92688825  0.05569482    -0.47040
C147        C  0.62529851  0.81382797  0.93990761     0.42430
N148        N  0.78480208  0.71368746  0.05631335    -0.47030
Co149      Co  0.81077023  0.92005792  0.03876750     0.73890
C150        C  0.71793432  0.97139630  0.05984296    -0.07360
C151        C  0.77757235  0.89522350  0.85729994    -0.06920
N152        N  0.76430480  0.74386503  0.99538725    -0.26450
N153        N  0.81145281  0.98222778  0.92058413    -0.47210
H154        H  0.62778479  0.89536368  0.93867221     0.06440
C155        C  0.80375507  0.81046044  0.12501566    -0.07340
Cl156      Cl  0.79212995  0.85376831  0.99185744    -0.50340
C157        C  0.95293590  0.89870937  0.06594117     0.42190
H158        H  0.71996440  0.68698806  0.97180250     0.06400
N159        N  0.78739458  0.88890157  0.12842406    -0.47050
C160        C  0.93290833  0.74324191  0.44497070     0.42040
N161        N  0.87925561  0.76711461  0.48540528     0.00930
C162        C  0.65714755  0.85957618  0.44406609    -0.06940
H163        H  0.77912438  0.92827400  0.34996786     0.06430
C164        C  0.87502490  0.98552808  0.47607056    -0.07290
Co165      Co  0.78423846  0.78365518  0.44377642     0.74180
N166        N  0.78474241  0.87297945  0.39585693    -0.26470
Co167      Co  0.75679088  0.90300376  0.44862150     0.74070
C168        C  0.86430477  0.00020335  0.43292989     0.42150
N169        N  0.89397711  0.88953747  0.54168883     0.00550
N170        N  0.81183975  0.95089501  0.45163822     0.00660
N171        N  0.67391936  0.78124902  0.43805548    -0.47320
H172        H  0.88104982  0.74355050  0.38774019     0.06410
N173        N  0.79624295  0.82781301  0.39376547     0.00940
N174        N  0.72947689  0.93418951  0.50147199     0.00680
C175        C  0.69483334  0.98773637  0.53786303     0.42290
N176        N  0.90208798  0.84381726  0.54519901    -0.25930
C177        C  0.74579543  0.70000154  0.49328886    -0.06850
N178        N  0.92440118  0.75555503  0.48437723    -0.47030
N179        N  0.69213699  0.96249922  0.50193961    -0.47260
C180        C  0.75829371  0.67701469  0.53260040     0.42060
N181        N  0.71314241  0.80701388  0.44231193     0.00930
N182        N  0.81681498  0.82526437  0.58824850    -0.25950
N183        N  0.85668568  0.76380896  0.44876732    -0.26440
N184        N  0.80885898  0.87142840  0.58922363     0.00570
H185        H  0.81523709  0.77071362  0.63487018     0.06460
H186        H  0.75610171  0.98754992  0.58670359     0.06490
N187        N  0.70387235  0.85277624  0.44562327    -0.26490
N188        N  0.84018918  0.95482676  0.48491615    -0.26100
N189        N  0.79529597  0.74332037  0.52943212     0.00930
C190        C  0.80332702  0.85347987  0.33164983     0.42330
C191        C  0.94542161  0.83778162  0.56253963    -0.07360
N192        N  0.75712743  0.93978979  0.53477800    -0.26100
H193        H  0.90421831  0.99573450  0.49680075     0.06480
N194        N  0.80670131  0.81433564  0.35554976    -0.47330
H195        H  0.95950041  0.80440604  0.57378277     0.06460
C196        C  0.79480699  0.84743980  0.65108745     0.42160
C197        C  0.88815882  0.74872088  0.42075702    -0.06850
Co198      Co  0.84819138  0.79417807  0.53747504     0.73820
N199        N  0.92972387  0.91546098  0.55621628    -0.47040
C200        C  0.63737915  0.81243178  0.43861645     0.42430
N201        N  0.78931766  0.70580416  0.55332591    -0.47030
Co202      Co  0.82544325  0.91446272  0.53797223     0.73890
C203        C  0.73798013  0.97190296  0.55982614    -0.07360
C204        C  0.78891579  0.89240923  0.35828081    -0.06920
N205        N  0.77139906  0.73983342  0.49363186    -0.26450
N206        N  0.82497821  0.97706584  0.42011320    -0.47210
H207        H  0.63943297  0.89353615  0.44529485     0.06440
C208        C  0.80847574  0.80697211  0.62567808    -0.07340
Cl209      Cl  0.80343842  0.84859379  0.49207531    -0.50340
C210        C  0.96345778  0.88556306  0.57075551     0.42190
H211        H  0.72531492  0.68636872  0.46682761     0.06400
N212        N  0.79560393  0.88612987  0.62641529    -0.47050
C213        C  0.55617465  0.50321895  0.17970399     0.42040
N214        N  0.60619212  0.45312660  0.15713500     0.00930
C215        C  0.58528747  0.31423306  0.97881251    -0.06940
H216        H  0.43668223  0.32010126  0.06499463     0.06430
C217        C  0.52583165  0.24322195  0.18325460    -0.07290
Co218      Co  0.58590093  0.42094219  0.06918488     0.74180
N219        N  0.50323952  0.35622467  0.06938153    -0.26470
Co220      Co  0.55382385  0.30348723  0.06955076     0.74070
C221        C  0.47801636  0.24111604  0.16270879     0.42150
N222        N  0.61938255  0.32634182  0.20939182     0.00550
N223        N  0.52696990  0.27585379  0.12289855     0.00660
N224        N  0.60789328  0.39102338  0.97807715    -0.47320
H225        H  0.51426034  0.50332380  0.11685956     0.06410
N226        N  0.51541262  0.40104849  0.06901542     0.00940
N227        N  0.60420323  0.24999004  0.07031800     0.00680
C228        C  0.63831390  0.18401993  0.05882241     0.42290
N229        N  0.63220640  0.37124992  0.20878029    -0.25930
C230        C  0.67676304  0.47165384  0.04444527    -0.06850
N231        N  0.59474973  0.47776819  0.19046569    -0.47030
N232        N  0.60608328  0.21473876  0.04303890    -0.47260
C233        C  0.72026683  0.48693282  0.06626598     0.42060
N234        N  0.59466532  0.37817614  0.01575019     0.00930
N235        N  0.70948438  0.34993809  0.15384910    -0.25950
N236        N  0.57721486  0.46011801  0.12468711    -0.26440
N237        N  0.69838130  0.30446511  0.15500573     0.00570
H238        H  0.77570770  0.38783407  0.15436379     0.06460
H239        H  0.67728867  0.18519798  0.12261783     0.06490
N240        N  0.58147450  0.33335691  0.01671938    -0.26490
N241        N  0.55348457  0.26593404  0.15618494    -0.26100
N242        N  0.68453747  0.43499774  0.10305802     0.00930
C243        C  0.43925421  0.40200675  0.06179661     0.42330
C244        C  0.62659422  0.39011385  0.24667691    -0.07360
N245        N  0.63185755  0.24293817  0.10359959    -0.26100
H246        H  0.53858816  0.22858310  0.21248723     0.06480
N247        N  0.47856045  0.42939646  0.06397309    -0.47330
H248        H  0.63559423  0.42591867  0.25613497     0.06460
C249        C  0.77449470  0.30655047  0.15509024     0.42160
C250        C  0.54395551  0.49145899  0.13607558    -0.06850
Co251      Co  0.65885389  0.40265677  0.15595882     0.73820
N252        N  0.60564432  0.31272766  0.24657034    -0.47040
C253        C  0.60348628  0.35213414  0.95309358     0.42430
N254        N  0.72239744  0.46265804  0.10248527    -0.47030
Co255      Co  0.62628421  0.28391145  0.15680434     0.73890
C256        C  0.65526596  0.20224523  0.09895289    -0.07360
C257        C  0.45599475  0.35304346  0.06583506    -0.06920
N258        N  0.65646032  0.44108413  0.07000989    -0.26450
N259        N  0.48260169  0.26261800  0.12591889    -0.47210
H260        H  0.57414012  0.27880884  0.97004093     0.06440
C261        C  0.75651575  0.35466374  0.15371673    -0.07340
Cl262      Cl  0.60665701  0.35259690  0.11268890    -0.50340
C263        C  0.60823948  0.35158827  0.27126874     0.42190
H264        H  0.65902596  0.48797324  0.01783486     0.06400
N265        N  0.73666699  0.27700161  0.15651012    -0.47050
C266        C  0.54618665  0.49473788  0.69041102     0.42040
N267        N  0.55330125  0.42779042  0.65957665     0.00930
C268        C  0.75452372  0.29778194  0.61890376    -0.06940
H269        H  0.71519786  0.42727809  0.51594212     0.06430
C270        C  0.56256138  0.33301511  0.47496051    -0.07290
Co271      Co  0.65284080  0.39264014  0.65939761     0.74180
N272        N  0.68492938  0.40525210  0.57255076    -0.26470
Co273      Co  0.66888454  0.33226089  0.56635603     0.74070
C274        C  0.60080173  0.35306969  0.45096089     0.42150
N275        N  0.50017426  0.34745407  0.56795138     0.00550
N276        N  0.62461561  0.34437261  0.51471064     0.00660
N277        N  0.74679587  0.34101471  0.67775361    -0.47320
H278        H  0.62732046  0.50067309  0.70046140     0.06410
N279        N  0.67730487  0.42723089  0.60802543     0.00940
N280        N  0.64983286  0.25987042  0.56321029     0.00680
C281        C  0.64903459  0.18428362  0.56027849     0.42290
N282        N  0.49297583  0.37071474  0.60273746    -0.25930
C283        C  0.64508941  0.35242060  0.74755261    -0.06850
N284        N  0.52223515  0.45906136  0.67207725    -0.47030
N285        N  0.67812435  0.22241915  0.56079105    -0.47260
C286        C  0.60648104  0.33627726  0.77276939     0.42060
N287        N  0.70848146  0.34436657  0.65298825     0.00930
N288        N  0.51755038  0.28724221  0.65146132    -0.25950
N289        N  0.59746763  0.44118313  0.66642536    -0.26440
N290        N  0.51980072  0.26414380  0.61579989     0.00570
H291        H  0.47247001  0.28145060  0.70351173     0.06460
H292        H  0.56798467  0.18071030  0.56102326     0.06490
N293        N  0.71305106  0.32063611  0.61783757    -0.26490
N294        N  0.58058367  0.32900544  0.51386544    -0.26100
N295        N  0.58057547  0.34522446  0.70946633     0.00930
C296        C  0.70928652  0.48174979  0.57111056     0.42330
C297        C  0.45504939  0.39884033  0.59641016    -0.07360
N298        N  0.60465955  0.24758109  0.56369103    -0.26100
H299        H  0.52827276  0.31994398  0.46430256     0.06480
N300        N  0.69065690  0.47182601  0.60807199    -0.47330
H301        H  0.44069482  0.42060184  0.62063574     0.06460
C302        C  0.46557923  0.22842820  0.64972041     0.42160
C303        C  0.59674062  0.48345166  0.68604471    -0.06850
Co304      Co  0.53602350  0.35765581  0.65615992     0.73820
N305        N  0.46922602  0.35768242  0.53793606    -0.47040
C306        C  0.77749770  0.31212978  0.65826660     0.42430
N307        N  0.56724389  0.33359212  0.74739980    -0.47030
Co308      Co  0.55121710  0.29655935  0.56498193     0.73890
C309        C  0.60071132  0.20063118  0.56186627    -0.07360
C310        C  0.70476108  0.43665088  0.54689346    -0.06920
N311        N  0.62576535  0.35731610  0.70928498    -0.26450
N312        N  0.63819204  0.35876184  0.47776918    -0.47210
H313        H  0.76894636  0.27822748  0.59313465     0.06440
C314        C  0.48667799  0.26577870  0.67568841    -0.07340
Cl315      Cl  0.60237673  0.34452403  0.61188183    -0.50340
C316        C  0.43828339  0.38922706  0.55296825     0.42190
H317        H  0.68008642  0.36430091  0.75744449     0.06400
N318        N  0.48800699  0.22955470  0.61303120    -0.47050
C319        C  0.21722482  0.02780121  0.30281694     0.42040
N320        N  0.18927456  0.08015656  0.26050567     0.00930
C321        C  0.10645192  0.30984502  0.28316704    -0.06940
H322        H  0.03353237  0.19167735  0.38628522     0.06430
C323        C  0.97351210  0.09344204  0.26490489    -0.07290
Co324      Co  0.17767376  0.17907646  0.29418905     0.74180
N325        N  0.08889767  0.18546558  0.34174243    -0.26470
Co326      Co  0.05864632  0.21108570  0.28659371     0.74070
C327        C  0.95970508  0.10576731  0.30736441     0.42150
N328        N  0.06619144  0.06807070  0.20166175     0.00550
N329        N  0.00921077  0.15707269  0.28634535     0.00660
N330        N  0.18378054  0.29011067  0.28614391    -0.47320
H331        H  0.22312269  0.08355698  0.35641092     0.06410
N332        N  0.13355756  0.17205311  0.34492073     0.00940
N333        N  0.02637498  0.23576410  0.23126511     0.00680
C334        C  0.97228338  0.26735680  0.19125667     0.42290
N335        N  0.11123318  0.05641924  0.20189349    -0.25930
C336        C  0.26220711  0.21029986  0.24317648    -0.06850
N337        N  0.20109241  0.03520387  0.26378519    -0.47030
N338        N  0.99641095  0.27192255  0.22824539    -0.47260
C339        C  0.28537043  0.19314935  0.20600660     0.42060
N340        N  0.15656078  0.25175753  0.28857928     0.00930
N341        N  0.13326584  0.13699037  0.15152281    -0.25950
N342        N  0.19555384  0.10483563  0.29538982    -0.26440
N343        N  0.08767821  0.14781402  0.14895925     0.00570
H344        H  0.18680029  0.12942806  0.10558732     0.06460
H345        H  0.97482462  0.20523976  0.14536876     0.06490
N346        N  0.11108308  0.26274864  0.28602135    -0.26490
N347        N  0.00427218  0.12754339  0.25440742    -0.26100
N348        N  0.21721816  0.15933294  0.21048574     0.00930
C349        C  0.10717523  0.16395593  0.40660063     0.42330
C350        C  0.11460760  0.00977120  0.19366624    -0.07360
N351        N  0.02189442  0.20690173  0.19899887    -0.26100
H352        H  0.96317831  0.06322991  0.24585456     0.06480
N353        N  0.14621903  0.15939807  0.38343780    -0.47330
H354        H  0.14741035  0.99067127  0.18999487     0.06460
C355        C  0.11165233  0.15421980  0.08622812     0.42160
C356        C  0.21342656  0.07435699  0.32452679    -0.06850
Co357      Co  0.16333471  0.10844268  0.20579556     0.73820
N358        N  0.03810957  0.03209277  0.19243559    -0.47040
C359        C  0.15479650  0.32859796  0.28211221     0.42430
N360        N  0.25526951  0.16158972  0.18731537    -0.47030
Co361      Co  0.04456440  0.13753816  0.20067039     0.73890
C362        C  0.99002734  0.22456046  0.17174348    -0.07360
C363        C  0.06933921  0.18164349  0.37906455    -0.06920
N364        N  0.22148968  0.18622982  0.24408714    -0.26450
N365        N  0.98366518  0.14519267  0.31846663    -0.47210
H366        H  0.07289968  0.32821500  0.28250135     0.06440
C367        C  0.15137764  0.14000571  0.11357822    -0.07340
Cl368      Cl  0.11118215  0.15928053  0.24665637    -0.50340
C369        C  0.06553138  0.99361832  0.18695191     0.42190
H370        H  0.27589797  0.23310300  0.26790682     0.06400
N371        N  0.07324189  0.15793835  0.11029359    -0.47050
C372        C  0.20748810  0.01726167  0.80185913     0.42040
N373        N  0.18691151  0.06942591  0.75663492     0.00930
C374        C  0.10969073  0.30005554  0.78224715    -0.06940
H375        H  0.03977805  0.18324170  0.88788798     0.06430
C376        C  0.97000953  0.08757616  0.77030023    -0.07290
Co377      Co  0.17829596  0.16829501  0.78974558     0.74180
N378        N  0.09273767  0.17645960  0.84125980    -0.26470
Co379      Co  0.06019084  0.20235796  0.78741840     0.74070
C380        C  0.95958310  0.10089187  0.81332876     0.42150
N381        N  0.06004336  0.05773534  0.70401510     0.00550
N382        N  0.00989068  0.14952672  0.78976028     0.00660
N383        N  0.18674169  0.27859852  0.78268808    -0.47320
H384        H  0.21327003  0.07375998  0.85431685     0.06410
N385        N  0.13720287  0.16238646  0.84261880     0.00940
N386        N  0.02556755  0.22741691  0.73368460     0.00680
C387        C  0.97166613  0.26260172  0.69636479     0.42290
N388        N  0.10504294  0.04640939  0.70276651    -0.25930
C389        C  0.25905795  0.19782633  0.73150207    -0.06850
N390        N  0.19458923  0.02375179  0.76177457    -0.47030
N391        N  0.99844775  0.26577031  0.73190117    -0.47260
C392        C  0.27485360  0.18280941  0.69064053     0.42060
N393        N  0.15869812  0.24091580  0.78503491     0.00930
N394        N  0.12417488  0.12587474  0.64991018    -0.25950
N395        N  0.19361887  0.09464110  0.79113722    -0.26440
N396        N  0.07877863  0.13744633  0.64907053     0.00570
H397        H  0.17685913  0.12270414  0.60284455     0.06460
H398        H  0.96646401  0.19990811  0.65063671     0.06490
N399        N  0.11342500  0.25286407  0.78429476    -0.26490
N400        N  0.00179098  0.11990377  0.75831863    -0.26100
N401        N  0.21007105  0.14759397  0.70325038     0.00930
C402        C  0.11365779  0.15390129  0.90526578     0.42330
C403        C  0.10903204  0.99943985  0.69806344    -0.07360
N404        N  0.01699009  0.19839977  0.70200321    -0.26100
H405        H  0.95660010  0.05821330  0.75165047     0.06480
N406        N  0.15142504  0.14901582  0.88055341    -0.47330
H407        H  0.14228369  0.98116510  0.69528675     0.06460
C408        C  0.10135737  0.14865817  0.58653735     0.42160
C409        C  0.20693686  0.06440783  0.82190486    -0.06850
Co410      Co  0.15711156  0.09736480  0.70273619     0.73820
N411        N  0.03230613  0.02035056  0.69970340    -0.47040
C412        C  0.15831255  0.31749242  0.78038549     0.42430
N413        N  0.24314308  0.15127665  0.67509861    -0.47030
Co414      Co  0.03858148  0.12810908  0.70275570     0.73890
C415        C  0.98432073  0.21796120  0.67645998    -0.07360
C416        C  0.07497808  0.17263734  0.87927565    -0.06920
N417        N  0.21884605  0.17379872  0.73675720    -0.26450
N418        N  0.98570043  0.13931201  0.82304241    -0.47210
H419        H  0.07675740  0.31955362  0.78283084     0.06440
C420        C  0.14136770  0.13162321  0.61193545    -0.07340
Cl421      Cl  0.10859028  0.14931695  0.74550047    -0.50340
C422        C  0.06036536  0.98161868  0.69630409     0.42190
H423        H  0.27672424  0.22024185  0.75459079     0.06400
N424        N  0.06349805  0.15097552  0.61144562    -0.47050
C425        C  0.06978565  0.13304141  0.47105119    -0.02260
C426        C  0.10576010  0.15987848  0.45265234     0.07420
C427        C  0.13876748  0.18470694  0.47845956    -0.02370
C428        C  0.13610876  0.18231312  0.52217826    -0.02380
C429        C  0.10068155  0.15477441  0.54060439     0.07550
C430        C  0.06731054  0.13035266  0.51480672    -0.02570
Br431      Br  0.01978019  0.09061732  0.53895229    -0.01120
Br432      Br  0.02520347  0.09749024  0.43646533    -0.01190
Br433      Br  0.17985671  0.21907574  0.55674335    -0.01150
Br434      Br  0.18638320  0.22426979  0.45425794    -0.01140
C435        C  0.15008864  0.17540939  0.97524866    -0.02260
C436        C  0.11460792  0.15137172  0.95150847     0.07420
C437        C  0.07762439  0.12833905  0.97216868    -0.02370
C438        C  0.07616638  0.12938073  0.01611417    -0.02380
C439        C  0.11114000  0.15445351  0.03981184     0.07550
C440        C  0.14763058  0.17788363  0.01897292    -0.02570
Br441      Br  0.19218804  0.21740147  0.04981056    -0.01120
Br442      Br  0.20124057  0.20740850  0.94827706    -0.01190
Br443      Br  0.02715264  0.09439483  0.04330405    -0.01150
Br444      Br  0.02990352  0.09310330  0.94047718    -0.01140
C445        C  0.84269936  0.29581686  0.71122406    -0.02260
C446        C  0.82865620  0.30722189  0.66992995     0.07420
C447        C  0.86379152  0.31250821  0.63967562    -0.02370
C448        C  0.91118160  0.30028682  0.64933010    -0.02380
C449        C  0.92456351  0.28513897  0.68968906     0.07550
C450        C  0.89056103  0.28531065  0.72125056    -0.02570
Br451      Br  0.90776956  0.26818580  0.77785110    -0.01120
Br452      Br  0.79596563  0.29150329  0.75383445    -0.01190
Br453      Br  0.95826903  0.30410096  0.60696701    -0.01150
Br454      Br  0.84888292  0.33953764  0.58564180    -0.01140
C455        C  0.40139329  0.16781247  0.65614269    -0.02260
C456        C  0.41487181  0.21554573  0.65247662     0.07420
C457        C  0.37995298  0.25150588  0.65490709    -0.02370
C458        C  0.33363346  0.24021041  0.66586252    -0.02380
C459        C  0.32129585  0.19290642  0.67307918     0.07550
C460        C  0.35452587  0.15636236  0.66635198    -0.02570
Br461      Br  0.33720315  0.09094804  0.67397656    -0.01120
Br462      Br  0.44777134  0.11851516  0.64886780    -0.01190
Br463      Br  0.28656567  0.28970231  0.67082533    -0.01150
Br464      Br  0.39396548  0.31652057  0.64236176    -0.01140
C465        C  0.59382686  0.38879458  0.88129739    -0.02260
C466        C  0.60818014  0.35025449  0.90683808     0.07420
C467        C  0.62452416  0.30816531  0.88749481    -0.02370
C468        C  0.62189425  0.30308661  0.84375512    -0.02380
C469        C  0.60605259  0.34085533  0.81870855     0.07550
C470        C  0.59461239  0.38448446  0.83750420    -0.02570
Br471      Br  0.58296313  0.43935652  0.80322061    -0.01120
Br472      Br  0.57103227  0.44728580  0.90504943    -0.01190
Br473      Br  0.64113138  0.24463360  0.81762744    -0.01150
Br474      Br  0.65478163  0.25856013  0.91991937    -0.01140
C475        C  0.64555007  0.33619325  0.34097534    -0.02260
C476        C  0.60597058  0.35110286  0.31692526     0.07420
C477        C  0.56538978  0.36801295  0.33642607    -0.02370
C478        C  0.56429019  0.37023922  0.38021980    -0.02380
C479        C  0.60343288  0.35391170  0.40479168     0.07550
C480        C  0.64422351  0.33673874  0.38474706    -0.02570
Br481      Br  0.69806727  0.31133704  0.41591378    -0.01120
Br482      Br  0.70204749  0.31565445  0.31355466    -0.01190
Br483      Br  0.51003743  0.39866292  0.40581693    -0.01150
Br484      Br  0.51127281  0.38798592  0.30274398    -0.01140
C485        C  0.90775778  0.29994679  0.14499586    -0.02260
C486        C  0.92218612  0.28182044  0.18419172     0.07420
C487        C  0.88744040  0.26983869  0.21322956    -0.02370
C488        C  0.83892954  0.27574215  0.20289878    -0.02380
C489        C  0.82469966  0.29410815  0.16378433     0.07550
C490        C  0.85926993  0.30643856  0.13495927    -0.02570
Br491      Br  0.84003741  0.33064585  0.08093157    -0.01120
Br492      Br  0.95476168  0.31591320  0.10496210    -0.01190
Br493      Br  0.79197604  0.25963216  0.24292551    -0.01150
Br494      Br  0.90526094  0.24345142  0.26675764    -0.01140
C495        C  0.37230211  0.20219744  0.22701619    -0.02260
C496        C  0.33611036  0.19956523  0.19548359     0.07420
C497        C  0.34883137  0.20306394  0.15358896    -0.02370
C498        C  0.39640704  0.21031269  0.14343264    -0.02380
C499        C  0.43129226  0.22107721  0.17511718     0.07550
C500        C  0.41870509  0.21618494  0.21724087    -0.02570
Br501      Br  0.46255442  0.23090007  0.26271332    -0.01120
Br502      Br  0.36065583  0.18202396  0.28325037    -0.01190
Br503      Br  0.41249551  0.20219702  0.08547615    -0.01150
Br504      Br  0.30095935  0.20061865  0.10939172    -0.01140
C505        C  0.03996163  0.89275415  0.61159027    -0.02260
C506        C  0.99044849  0.89782736  0.60923291     0.07420
C507        C  0.96644960  0.91510595  0.64426691    -0.02370
C508        C  0.99228542  0.93094646  0.67933427    -0.02380
C509        C  0.04137895  0.93735422  0.67702154     0.07550
C510        C  0.06578013  0.91237635  0.64582118    -0.02570
Br511      Br  0.13292756  0.90119153  0.65058560    -0.01120
Br512      Br  0.07220975  0.86265399  0.56639844    -0.01190
Br513      Br  0.96010756  0.94751456  0.72964163    -0.01150
Br514      Br  0.89875982  0.92313900  0.64407368    -0.01140
C515        C  0.89138878  0.09359032  0.35352324    -0.02260
C516        C  0.93453899  0.07701751  0.33799284     0.07420
C517        C  0.95641026  0.03672862  0.35590722    -0.02370
C518        C  0.93490068  0.01294823  0.38892435    -0.02380
C519        C  0.89156150  0.02943930  0.40419062     0.07550
C520        C  0.86988706  0.06980915  0.38636556    -0.02570
Br521      Br  0.81060923  0.09277045  0.40733664    -0.01120
Br522      Br  0.86082683  0.14818926  0.32897944    -0.01190
Br523      Br  0.96385826  0.95673830  0.41205659    -0.01150
Br524      Br  0.01663263  0.01504351  0.33621066    -0.01140
C525        C  0.73670819  0.61446542  0.58308755    -0.02260
C526        C  0.75064430  0.62655558  0.54302834     0.07420
C527        C  0.75858864  0.59031020  0.51356992    -0.02370
C528        C  0.74598266  0.54292996  0.52201073    -0.02380
C529        C  0.72833444  0.53054135  0.56159713     0.07550
C530        C  0.72809408  0.56680968  0.59316240    -0.02570
Br531      Br  0.72017154  0.55401191  0.65192759    -0.01120
Br532      Br  0.72814359  0.66396386  0.62433826    -0.01190
Br533      Br  0.75610021  0.49700886  0.47848558    -0.01150
Br534      Br  0.79123405  0.60459291  0.46288943    -0.01140
C535        C  0.67215691  0.05582031  0.58307747    -0.02260
C536        C  0.67640197  0.03674607  0.54247066     0.07420
C537        C  0.66995975  0.06705992  0.50747074    -0.02370
C538        C  0.66284972  0.11590678  0.51364874    -0.02380
C539        C  0.66254437  0.13477805  0.55419400     0.07550
C540        C  0.66629377  0.10481774  0.58883909    -0.02570
Br541      Br  0.66308197  0.13139858  0.64428129    -0.01120
Br542      Br  0.67147176  0.01487821  0.63110123    -0.01190
Br543      Br  0.65283163  0.15756948  0.46653664    -0.01150
Br544      Br  0.67082920  0.04407031  0.45057604    -0.01140
C545        C  0.83435741  0.83469242  0.72160103    -0.02260
C546        C  0.79454779  0.84969310  0.69718189     0.07420
C547        C  0.75434438  0.86747660  0.71695613    -0.02370
C548        C  0.75319299  0.86914894  0.76076875    -0.02380
C549        C  0.79311428  0.85459147  0.78510045     0.07550
C550        C  0.83366419  0.83760963  0.76538906    -0.02570
Br551      Br  0.88916052  0.82008792  0.79859424    -0.01120
Br552      Br  0.89105713  0.81181561  0.69590966    -0.01190
Br553      Br  0.69532731  0.88806053  0.78687441    -0.01150
Br554      Br  0.69984876  0.88770528  0.68384975    -0.01140
C555        C  0.75419682  0.86351610  0.22085468    -0.02260
C556        C  0.79366951  0.84944023  0.19807473     0.07420
C557        C  0.83593553  0.83514362  0.21952001    -0.02370
C558        C  0.83926983  0.83802644  0.26325187    -0.02380
C559        C  0.79981744  0.85219154  0.28584300     0.07550
C560        C  0.75681176  0.86374234  0.26466828    -0.02570
Br561      Br  0.70024664  0.87635750  0.29525328    -0.01120
Br562      Br  0.69542212  0.87950601  0.19194310    -0.01190
Br563      Br  0.89854016  0.82423362  0.29247928    -0.01150
Br564      Br  0.88988501  0.81120028  0.19029277    -0.01140
C565        C  0.03471405  0.91748135  0.09318263    -0.02260
C566        C  0.98613188  0.91221683  0.10029646     0.07420
C567        C  0.96848845  0.92333535  0.13984542    -0.02370
C568        C  0.99923211  0.94002324  0.17163914    -0.02380
C569        C  0.04585595  0.95317376  0.16248331     0.07550
C570        C  0.06456262  0.93928287  0.12374165    -0.02570
Br571      Br  0.12900772  0.95308251  0.10987948    -0.01120
Br572      Br  0.05882764  0.89983423  0.03969699    -0.01190
Br573      Br  0.97613354  0.94944314  0.22726615    -0.01150
Br574      Br  0.90140689  0.92281885  0.14962603    -0.01140
C575        C  0.89731824  0.10227019  0.86658158    -0.02260
C576        C  0.93100088  0.07630599  0.84420245     0.07420
C577        C  0.94045419  0.02871970  0.85474285    -0.02370
C578        C  0.91419533  0.00639399  0.88552402    -0.02380
C579        C  0.88037495  0.03234221  0.90749332     0.07550
C580        C  0.87256133  0.08044977  0.89853470    -0.02570
Br581      Br  0.82769759  0.11649930  0.92978115    -0.01120
Br582      Br  0.88363596  0.16745760  0.85273288    -0.01190
Br583      Br  0.92384679  0.93994851  0.89721297    -0.01150
Br584      Br  0.99194290  0.99514125  0.83010451    -0.01140
C585        C  0.71392070  0.62005373  0.07612306    -0.02260
C586        C  0.74971222  0.63365796  0.04942483     0.07420
C587        C  0.78022750  0.59941614  0.03255073    -0.02370
C588        C  0.77249851  0.55096609  0.04006119    -0.02380
C589        C  0.73464433  0.53706346  0.06466426     0.07550
C590        C  0.70637988  0.57185069  0.08383267    -0.02570
Br591      Br  0.65558377  0.55403717  0.11911318    -0.01120
Br592      Br  0.67405556  0.66766889  0.10069136    -0.01190
Br593      Br  0.81266482  0.50356446  0.01595507    -0.01150
Br594      Br  0.83200504  0.61897060  0.99874227    -0.01140
C595        C  0.68354318  0.12041675  0.02595997    -0.02260
C596        C  0.64246221  0.13454710  0.04585455     0.07420
C597        C  0.60927670  0.10060841  0.05857580    -0.02370
C598        C  0.61916027  0.05196464  0.05386618    -0.02380
C599        C  0.66204672  0.03771780  0.03651803     0.07550
C600        C  0.69329919  0.07213097  0.02113870    -0.02570
Br601      Br  0.75061188  0.05393704  0.99467560    -0.01120
Br602      Br  0.72723594  0.16770016  0.00679815    -0.01190
Br603      Br  0.57515531  0.00492140  0.07228735    -0.01150
Br604      Br  0.55165395  0.12082369  0.08418540    -0.01140
C605        C  0.34851557  0.42161296  0.97616541    -0.02260
C606        C  0.34769652  0.47123494  0.97829525     0.07420
C607        C  0.36082036  0.49400074  0.01599034    -0.02370
C608        C  0.38476807  0.46872242  0.04754267    -0.02380
C609        C  0.39510024  0.42033565  0.04150282     0.07550
C610        C  0.37133972  0.39567426  0.00834832    -0.02570
Br611      Br  0.36800997  0.32755057  0.00605903    -0.01120
Br612      Br  0.31912129  0.38971618  0.92900180    -0.01190
Br613      Br  0.40559314  0.50108274  0.09811236    -0.01150
Br614      Br  0.34611428  0.55969526  0.02433867    -0.01140
C615        C  0.46588895  0.52813926  0.77909518    -0.02260
C616        C  0.47633986  0.57655852  0.78375047     0.07420
C617        C  0.51220454  0.59725918  0.76006205    -0.02370
C618        C  0.53643108  0.57000915  0.73069597    -0.02380
C619        C  0.52470189  0.52197714  0.72460716     0.07550
C620        C  0.48994764  0.50068571  0.74988299    -0.02570
Br621      Br  0.47362787  0.43385920  0.74604376    -0.01120
Br622      Br  0.41494709  0.50010094  0.80966845    -0.01190
Br623      Br  0.58289136  0.59975999  0.69644001    -0.01150
Br624      Br  0.52752403  0.66353891  0.76656870    -0.01140
C625        C  0.48987441  0.82282646  0.93883812    -0.02260
C626        C  0.47667975  0.78436499  0.91319097     0.07420
C627        C  0.51207806  0.75383624  0.89832226    -0.02370
C628        C  0.56043789  0.76310201  0.90682562    -0.02380
C629        C  0.57408805  0.80176885  0.93271308     0.07550
C630        C  0.53806647  0.83062760  0.94987596    -0.02570
Br631      Br  0.55283219  0.87770444  0.99225576    -0.01120
Br632      Br  0.44118140  0.86386206  0.95975479    -0.01190
Br633      Br  0.60702259  0.72263959  0.88156417    -0.01150
Br634      Br  0.49441648  0.69753353  0.86777360    -0.01140
C635        C  0.05576861  0.75444250  0.92930220    -0.02260
C636        C  0.06546944  0.70785061  0.91638061     0.07420
C637        C  0.02775222  0.67614439  0.90775052    -0.02370
C638        C  0.98051457  0.69047813  0.91374867    -0.02380
C639        C  0.97089041  0.73676576  0.92792586     0.07550
C640        C  0.00867653  0.76895380  0.93488395    -0.02570
Br641      Br  0.99587750  0.83360796  0.95105628    -0.01120
Br642      Br  0.10737092  0.79818744  0.93974931    -0.01190
Br643      Br  0.92937864  0.64598366  0.90468586    -0.01150
Br644      Br  0.04095226  0.61307237  0.88770599    -0.01140
C645        C  0.15250507  0.45255204  0.77111058    -0.02260
C646        C  0.19127378  0.46657736  0.79683863     0.07420
C647        C  0.22483509  0.43191143  0.80951387    -0.02370
C648        C  0.21527937  0.38316894  0.80349185    -0.02380
C649        C  0.17367650  0.36853925  0.78124431     0.07550
C650        C  0.14485256  0.40397396  0.76191649    -0.02570
Br651      Br  0.09661998  0.38708141  0.72053036    -0.01120
Br652      Br  0.10844804  0.49956258  0.75018339    -0.01190
Br653      Br  0.25847942  0.33767233  0.82852704    -0.01150
Br654      Br  0.28545095  0.45145321  0.83326987    -0.01140
C655        C  0.18047469  0.88802409  0.81060876    -0.02260
C656        C  0.22456944  0.86936259  0.82533852     0.07420
C657        C  0.25978810  0.90178954  0.84070874    -0.02370
C658        C  0.25338712  0.95116475  0.83591081    -0.02380
C659        C  0.21035195  0.96893514  0.81960314     0.07550
C660        C  0.17284164  0.93733064  0.81059202    -0.02570
Br661      Br  0.11047013  0.96226921  0.79798009    -0.01120
Br662      Br  0.13159963  0.84900460  0.78462946    -0.01190
Br663      Br  0.30467194  0.99447151  0.84874037    -0.01150
Br664      Br  0.31722842  0.88016620  0.86888131    -0.01140
C665        C  0.26215119  0.68104849  0.59004406    -0.02260
C666        C  0.30223422  0.66106217  0.57126329     0.07420
C667        C  0.33660261  0.63714689  0.59650275    -0.02370
C668        C  0.32940189  0.63141519  0.63943083    -0.02380
C669        C  0.28889528  0.65064283  0.65785109     0.07550
C670        C  0.25567571  0.67624775  0.63312861    -0.02570
Br671      Br  0.20286119  0.70805463  0.65811960    -0.01120
Br672      Br  0.21703917  0.71787017  0.55714494    -0.01190
Br673      Br  0.37456907  0.59546836  0.67311173    -0.01150
Br674      Br  0.39347473  0.61078296  0.57366711    -0.01140
C675        C  0.24972487  0.68887081  0.13378707    -0.02260
C676        C  0.28821983  0.66990356  0.15757597     0.07420
C677        C  0.33013187  0.65748624  0.13737176    -0.02370
C678        C  0.33414196  0.66482917  0.09430065    -0.02380
C679        C  0.29366174  0.67832309  0.06961374     0.07550
C680        C  0.25181671  0.69119913  0.08999111    -0.02570
Br681      Br  0.19790676  0.71567745  0.05820243    -0.01120
Br682      Br  0.19529120  0.71574881  0.16034126    -0.01190
Br683      Br  0.39672226  0.65774145  0.07220128    -0.01150
Br684      Br  0.38186378  0.62717696  0.16814108    -0.01140
C685        C  0.34827019  0.47620403  0.50551063    -0.02260
C686        C  0.34927444  0.46105809  0.46365311     0.07420
C687        C  0.36820873  0.41676028  0.45397822    -0.02370
C688        C  0.39047641  0.38969068  0.48545478    -0.02380
C689        C  0.39934290  0.40974603  0.52587050     0.07550
C690        C  0.37415942  0.45141211  0.53661468    -0.02570
Br691      Br  0.37286885  0.47603663  0.59269217    -0.01120
Br692      Br  0.31251973  0.53196046  0.52001362    -0.01190
Br693      Br  0.40534694  0.32437243  0.47229085    -0.01150
Br694      Br  0.36473615  0.39408300  0.39711946    -0.01140
C695        C  0.45872375  0.52970528  0.25520093    -0.02260
C696        C  0.47571311  0.57178035  0.27412267     0.07420
C697        C  0.51938075  0.59082376  0.26246090    -0.02370
C698        C  0.54551864  0.56847681  0.23132563    -0.02380
C699        C  0.52747993  0.52763571  0.21091500     0.07550
C700        C  0.48460678  0.50753451  0.22368886    -0.02570
Br701      Br  0.46226372  0.44865037  0.19932703    -0.01120
Br702      Br  0.39913170  0.50352980  0.27147902    -0.01190
Br703      Br  0.60569588  0.59450589  0.21623627    -0.01150
Br704      Br  0.54307223  0.64797902  0.28907736    -0.01140
C705        C  0.51548651  0.76219082  0.45770557    -0.02260
C706        C  0.48743543  0.78421320  0.42550643     0.07420
C707        C  0.50882367  0.82002812  0.40173080    -0.02370
C708        C  0.55827527  0.82627939  0.40380329    -0.02380
C709        C  0.58645688  0.80113313  0.43319121     0.07550
C710        C  0.56478007  0.77014507  0.46088501    -0.02570
Br711      Br  0.60263302  0.73983869  0.50438922    -0.01120
Br712      Br  0.48749672  0.72492565  0.50107774    -0.01190
Br713      Br  0.58742983  0.86738697  0.36397134    -0.01150
Br714      Br  0.47154367  0.86674130  0.37173109    -0.01140
C715        C  0.06410764  0.75955940  0.43264243    -0.02260
C716        C  0.07832252  0.71318014  0.42281928     0.07420
C717        C  0.04392662  0.67733560  0.41658829    -0.02370
C718        C  0.99554138  0.68781848  0.42117852    -0.02380
C719        C  0.98143533  0.73419001  0.43137019     0.07550
C720        C  0.01584258  0.77011896  0.43685781    -0.02570
Br721      Br  0.99689919  0.83394103  0.45068923    -0.01120
Br722      Br  0.11109789  0.80818897  0.44205966    -0.01190
Br723      Br  0.94874922  0.63822737  0.41602890    -0.01150
Br724      Br  0.06289465  0.61396459  0.40149073    -0.01140
C725        C  0.13830837  0.41562074  0.26396222    -0.02260
C726        C  0.16960007  0.38026003  0.28063948     0.07420
C727        C  0.21404122  0.39570763  0.29761560    -0.02370
C728        C  0.22388721  0.44468861  0.30215579    -0.02380
C729        C  0.18883756  0.47912447  0.29265271     0.07550
C730        C  0.14683480  0.46442842  0.27190136    -0.02570
Br731      Br  0.09965258  0.51117439  0.25671708    -0.01120
Br732      Br  0.08589304  0.39917922  0.22666079    -0.01190
Br733      Br  0.28618297  0.46504567  0.32129536    -0.01150
Br734      Br  0.26193833  0.35123254  0.31668804    -0.01140
C735        C  0.26761250  0.90426520  0.29027534    -0.02260
C736        C  0.24910397  0.88019466  0.32453421     0.07420
C737        C  0.22653142  0.90678925  0.35567255    -0.02370
C738        C  0.21841431  0.95611443  0.35067601    -0.02380
C739        C  0.23503613  0.97978156  0.31534058     0.07550
C740        C  0.26193048  0.95371790  0.28641135    -0.02570
Br741      Br  0.29216049  0.98573586  0.24115423    -0.01760
Br742      Br  0.29841537  0.86922216  0.24676569    -0.01190
Br743      Br  0.18225023  0.99019290  0.39104091    -0.01150
Br744      Br  0.20881679  0.87594419  0.40609003    -0.01140
loop_ 
_geom_bond_atom_site_label_1 
_geom_bond_atom_site_label_2 
_geom_bond_distance 
_geom_bond_site_symmetry_2 
_ccdc_geom_bond_type 
C1           N19   1.348       .  A
C1           C38   1.475       .  S
C1          C736   1.496       .  S
N2           N19   1.324       .  A
N2           N24   1.325       .  A
N2          Co39   2.077       .  S
C3           N28   1.330       .  A
C3           C41   1.444       .  S
C3           H48   1.082       .  S
H4           C45   1.082       .  S
C5           N29   1.342       .  A
C5            C9   1.467       .  S
C5           H34   1.080       .  S
Co6          N24   2.145       .  S
Co6          N14   2.072       .  S
Co6          N46   2.067       .  S
Co6          N22   2.153       .  S
Co6         Cl50   2.439       .  S
N7           C45   1.344       .  A
N7           N14   1.318       .  A
N7           Co8   2.080       .  S
Co8          N11   2.075       .  S
Co8          N28   2.056       .  S
Co8          N15   2.077       .  S
Co8         Cl50   2.458       .  S
C9           N47   1.350       .  A
C9          C666   1.486       .  S
N10          N17   1.312       .  A
N10          N40   1.318       .  A
N10         Co43   2.062       .  S
N11          N29   1.321       .  A
N11          N47   1.321       .  A
N12          C41   1.368       .  A
N12          N22   1.338       .  A
H13          C38   1.081       .  S
N14          N35   1.322       .  A
N15          N33   1.315       .  A
N15          N20   1.323       .  A
C16          N20   1.349       .  A
C16          C44   1.458       .  S
C16         C686   1.469       .  S
N17          C32   1.341       .  A
N17         Co39   2.081       .  S
C18          N46   1.341       .  A
C18          C21   1.464       .  S
C18          H52   1.081       .  S
C21          N42   1.350       .  A
C21         C676   1.487       .  S
N22          N28   1.321       .  A
N23          C49   1.333       .  A
N23          N25   1.322       .  A
N23         Co39   2.064       .  S
N24          C38   1.352       .  A
N25          N53   1.330       .  A
N25         Co43   2.115       .  S
H26          C49   1.081       .  S
H27          C44   1.082       .  S
N29         Co43   2.102       .  S
N30          N42   1.322       .  A
N30          N46   1.315       .  A
N30         Co39   2.079       .  S
C31          N35   1.345       .  A
C31          C45   1.464       .  S
C31         C716   1.474       .  S
C32          C51   1.481       .  S
C32          H36   1.077       .  S
N33          C44   1.335       .  A
N33         Co43   2.062       .  S
C37          N53   1.356       .  A
C37          C49   1.446       .  S
C37         C696   1.473       .  S
Co39        Cl50   2.457       .  S
N40          C51   1.348       .  A
C41         C729   1.498       .  S
Co43        Cl50   2.435       .  S
C51         C706   1.505       .  S
C54          N72   1.359       .  A
C54          C91   1.462   1_554  S
C54         C679   1.496       .  S
N55          N72   1.325   1_556  A
N55          N77   1.320       .  A
N55         Co92   2.097       .  S
C56          N81   1.332       .  A
C56          C94   1.447       .  S
C56         H101   1.082       .  S
H57          C98   1.082       .  S
C58          N82   1.344       .  A
C58          C62   1.474       .  S
C58          H87   1.078       .  S
Co59         N77   2.085       .  S
Co59         N67   2.064       .  S
Co59         N99   2.080       .  S
Co59         N75   2.111       .  S
Co59       Cl103   2.418       .  S
N60          C98   1.347       .  A
N60          N67   1.316       .  A
N60         Co61   2.092       .  S
Co61         N64   2.079       .  S
Co61         N81   2.053       .  S
Co61         N68   2.064       .  S
Co61       Cl103   2.467       .  S
C62         N100   1.350       .  A
C62         C656   1.503       .  S
N63          N70   1.318       .  A
N63          N93   1.323       .  A
N63         Co96   2.075       .  S
N64          N82   1.322       .  A
N64         N100   1.322       .  A
N65          C94   1.357       .  A
N65          N75   1.328       .  A
H66          C91   1.078   1_554  S
N67          N88   1.321       .  A
N68          N86   1.316       .  A
N68          N73   1.321       .  A
C69          N73   1.345       .  A
C69          C97   1.466       .  S
C69         C669   1.479       .  S
N70          C85   1.347       .  A
N70         Co92   2.088       .  S
C71          N99   1.338       .  A
C71          C74   1.466       .  S
C71         H105   1.082       .  S
C74          N95   1.347       .  A
C74         C606   1.473       .  S
N75          N81   1.320       .  A
N76         C102   1.333       .  A
N76          N78   1.323       .  A
N76         Co92   2.075       .  S
N77          C91   1.336       .  A
N78         N106   1.335       .  A
N78         Co96   2.132       .  S
H79         C102   1.082       .  S
H80          C97   1.081       .  S
N82         Co96   2.117       .  S
N83          N95   1.323       .  A
N83          N99   1.316       .  A
N83         Co92   2.067       .  S
C84          N88   1.345       .  A
C84          C98   1.472       .  S
C84         C626   1.484       .  S
C85         C104   1.465       .  S
C85          H89   1.082       .  S
N86          C97   1.344       .  A
N86         Co96   2.082       .  S
C90         N106   1.363       .  A
C90         C102   1.451       .  S
C90         C646   1.496       .  S
Co92       Cl103   2.472       .  S
N93         C104   1.344       .  A
C94         C616   1.471       .  S
Co96       Cl103   2.434       .  S
C104        C636   1.477       .  S
C107        N125   1.341       .  A
C107        C144   1.473       .  S
C107        C639   1.480       .  S
N108        N125   1.318       .  A
N108        N130   1.323       .  A
N108       Co145   2.061   1_556  S
C109        N134   1.333       .  A
C109        C147   1.454       .  S
C109        H154   1.081       .  S
H110        C151   1.082       .  S
C111        N135   1.345       .  A
C111        C115   1.464   1_565  S
C111        H140   1.081   1_566  S
Co112       N130   2.123       .  S
Co112       N120   2.083       .  S
Co112       N152   2.073       .  S
Co112       N128   2.127       .  S
Co112      Cl156   2.452       .  S
N113        C151   1.338       .  A
N113        N120   1.317       .  A
N113       Co114   2.069       .  S
Co114       N117   2.060       .  S
Co114       N134   2.059       .  S
Co114       N121   2.074       .  S
Co114      Cl156   2.444       .  S
C115        N153   1.343   1_545  A
C115        C579   1.466       .  S
N116        N123   1.316       .  A
N116        N146   1.320       .  A
N116       Co149   2.064       .  S
N117        N135   1.320       .  A
N117        N153   1.320       .  A
N118        C147   1.362       .  A
N118        N128   1.330       .  A
H119        C144   1.082       .  S
N120        N141   1.325       .  A
N121        N139   1.316   1_556  A
N121        N126   1.323       .  A
C122        N126   1.350   1_554  A
C122        C150   1.464       .  S
C122        C599   1.473   1_565  S
N123        C138   1.342       .  A
N123       Co145   2.082       .  S
C124        N152   1.338       .  A
C124        C127   1.456   1_556  S
C124        H158   1.082       .  S
C127        N148   1.345       .  A
C127        C586   1.464       .  S
N128        N134   1.320       .  A
N129        C155   1.334       .  A
N129        N131   1.320       .  A
N129       Co145   2.060       .  S
N130        C144   1.351       .  A
N131        N159   1.327       .  A
N131       Co149   2.110       .  S
H132        C155   1.082       .  S
H133        C150   1.082       .  S
N135       Co149   2.099   1_556  S
N136        N148   1.323       .  A
N136        N152   1.318   1_554  A
N136       Co145   2.067       .  S
C137        N141   1.351       .  A
C137        C151   1.456       .  S
C137        C549   1.478       .  S
C138        C157   1.463       .  S
C138        H142   1.082       .  S
N139        C150   1.338       .  A
N139       Co149   2.078       .  S
C143        N159   1.356       .  A
C143        C155   1.452       .  S
C143        C556   1.478       .  S
Co145      Cl156   2.440   1_554  S
N146        C157   1.348       .  A
C147        C629   1.496       .  S
Co149      Cl156   2.442   1_554  S
C157        C566   1.474       .  S
C160        N178   1.339       .  A
C160        C197   1.472       .  S
C160        C719   1.472       .  S
N161        N178   1.317       .  A
N161        N183   1.323       .  A
N161       Co198   2.054       .  S
C162        N187   1.333       .  A
C162        C200   1.451       .  S
C162        H207   1.082       .  S
H163        C204   1.082       .  S
C164        N188   1.349       .  A
C164        C168   1.470   1_565  S
C164        H193   1.082       .  S
Co165       N183   2.122       .  S
Co165       N173   2.074       .  S
Co165       N205   2.069       .  S
Co165       N181   2.112       .  S
Co165      Cl209   2.444       .  S
N166        C204   1.337       .  A
N166        N173   1.317       .  A
N166       Co167   2.067       .  S
Co167       N170   2.060       .  S
Co167       N187   2.060       .  S
Co167       N174   2.076       .  S
Co167      Cl209   2.439       .  S
C168        N206   1.341   1_545  A
C168        C519   1.476       .  S
N169        N176   1.315       .  A
N169        N199   1.319       .  A
N169       Co202   2.059       .  S
N170        N188   1.319       .  A
N170        N206   1.319       .  A
N171        C200   1.356       .  A
N171        N181   1.328       .  A
H172        C197   1.082       .  S
N173        N194   1.324       .  A
N174        N192   1.313       .  A
N174        N179   1.323       .  A
C175        N179   1.352       .  A
C175        C203   1.460       .  S
C175        C536   1.485   1_565  S
N176        C191   1.340       .  A
N176       Co198   2.077       .  S
C177        N205   1.337       .  A
C177        C180   1.456       .  S
C177        H211   1.082       .  S
C180        N201   1.352       .  A
C180        C526   1.482       .  S
N181        N187   1.322       .  A
N182        C208   1.338       .  A
N182        N184   1.322       .  A
N182       Co198   2.069       .  S
N183        C197   1.350       .  A
N184        N212   1.326       .  A
N184       Co202   2.115       .  S
H185        C208   1.082       .  S
H186        C203   1.082       .  S
N188       Co202   2.107       .  S
N189        N201   1.325       .  A
N189        N205   1.318       .  A
N189       Co198   2.081       .  S
C190        N194   1.350       .  A
C190        C204   1.453       .  S
C190        C559   1.471       .  S
C191        C210   1.461       .  S
C191        H195   1.082       .  S
N192        C203   1.333       .  A
N192       Co202   2.057       .  S
C196        N212   1.353       .  A
C196        C208   1.458       .  S
C196        C546   1.481       .  S
Co198      Cl209   2.448       .  S
N199        C210   1.347       .  A
C200        C709   1.478       .  S
Co202      Cl209   2.434       .  S
C210        C506   1.471       .  S
C213        N231   1.342       .  A
C213        C250   1.468       .  S
C213        C699   1.475       .  S
N214        N231   1.321       .  A
N214        N236   1.320       .  A
N214       Co251   2.059       .  S
C215        N240   1.336   1_556  A
C215        C253   1.458       .  S
C215        H260   1.081       .  S
H216        C257   1.078       .  S
C217        N241   1.351       .  A
C217        C221   1.485       .  S
C217        H246   1.079       .  S
Co218       N236   2.112       .  S
Co218       N226   2.068       .  S
Co218       N258   2.072       .  S
Co218       N234   2.112       .  S
Co218      Cl262   2.448       .  S
N219        C257   1.338       .  A
N219        N226   1.311       .  A
N219       Co220   2.062       .  S
Co220       N223   2.052       .  S
Co220       N240   2.073       .  S
Co220       N227   2.073       .  S
Co220      Cl262   2.433       .  S
C221        N259   1.341       .  A
C221        C499   1.502       .  S
N222        N229   1.319       .  A
N222        N252   1.325       .  A
N222       Co255   2.078       .  S
N223        N241   1.317       .  A
N223        N259   1.314       .  A
N224        C253   1.359       .  A
N224        N234   1.329   1_556  A
H225        C250   1.080       .  S
N226        N247   1.319       .  A
N227        N245   1.320       .  A
N227        N232   1.323       .  A
C228        N232   1.346       .  A
C228        C256   1.452       .  S
C228        C596   1.460       .  S
N229        C244   1.339       .  A
N229       Co251   2.079       .  S
C230        N258   1.336       .  A
C230        C233   1.459       .  S
C230        H264   1.082       .  S
C233        N254   1.353       .  A
C233        C589   1.474       .  S
N234        N240   1.319       .  A
N235        C261   1.335       .  A
N235        N237   1.322       .  A
N235       Co251   2.065       .  S
N236        C250   1.347       .  A
N237        N265   1.330       .  A
N237       Co255   2.120       .  S
H238        C261   1.082       .  S
H239        C256   1.082       .  S
N241       Co255   2.117       .  S
N242        N254   1.325       .  A
N242        N258   1.317       .  A
N242       Co251   2.083       .  S
C243        N247   1.353       .  A
C243        C257   1.465       .  S
C243        C609   1.483       .  S
C244        C263   1.453       .  S
C244        H248   1.081       .  S
N245        C256   1.334       .  A
N245       Co255   2.067       .  S
C249        N265   1.358       .  A
C249        C261   1.450       .  S
C249        C489   1.479       .  S
Co251      Cl262   2.440       .  S
N252        C263   1.350       .  A
C253        C466   1.495       .  S
Co255      Cl262   2.460       .  S
C263        C476   1.469       .  S
C266        N284   1.337       .  A
C266        C303   1.473       .  S
C266        C619   1.481       .  S
N267        N284   1.313       .  A
N267        N289   1.315       .  A
N267       Co304   2.040       .  S
C268        N293   1.336       .  A
C268        C306   1.458       .  S
C268        H313   1.081       .  S
H269        C310   1.076       .  S
C270        N294   1.340       .  A
C270        C274   1.462       .  S
C270        H299   1.081       .  S
Co271       N289   2.094       .  S
Co271       N279   2.059       .  S
Co271       N311   2.059       .  S
Co271       N287   2.093       .  S
Co271      Cl315   2.459       .  S
N272        C310   1.347       .  A
N272        N279   1.317       .  A
N272       Co273   2.116       .  S
Co273       N276   2.076       .  S
Co273       N293   2.067       .  S
Co273       N280   2.114       .  S
Co273      Cl315   2.438       .  S
C274        N312   1.351       .  A
C274        C479   1.487       .  S
N275        N282   1.313       .  A
N275        N305   1.314       .  A
N275       Co308   2.038       .  S
N276        N294   1.316       .  A
N276        N312   1.324       .  A
N277        C306   1.354       .  A
N277        N287   1.327       .  A
H278        C303   1.081       .  S
N279        N300   1.314       .  A
N280        N298   1.323       .  A
N280        N285   1.328       .  A
C281        N285   1.354       .  A
C281        C309   1.442       .  S
C281        C539   1.461       .  S
N282        C297   1.344       .  A
N282       Co304   2.106       .  S
C283        N311   1.337       .  A
C283        C286   1.453       .  S
C283        H317   1.082       .  S
C286        N307   1.357       .  A
C286        C469   1.480       .  S
N287        N293   1.318       .  A
N288        C314   1.334       .  A
N288        N290   1.317       .  A
N288       Co304   2.058       .  S
N289        C303   1.346       .  A
N290        N318   1.327       .  A
N290       Co308   2.096       .  S
H291        C314   1.082       .  S
H292        C309   1.082       .  S
N294       Co308   2.079       .  S
N295        N307   1.329       .  A
N295        N311   1.321       .  A
N295       Co304   2.123       .  S
C296        N300   1.344       .  A
C296        C310   1.491       .  S
C296        C529   1.515       .  S
C297        C316   1.483       .  S
C297        H301   1.077       .  S
N298        C309   1.330       .  A
N298       Co308   2.047       .  S
C302        N318   1.355       .  A
C302        C314   1.456       .  S
C302        C456   1.483       .  S
Co304      Cl315   2.413       .  S
N305        C316   1.345       .  A
C306        C446   1.488       .  S
Co308      Cl315   2.456       .  S
C316        C689   1.499       .  S
C319        N337   1.338       .  A
C319        C356   1.489       .  S
C319        C739   1.498   1_545  S
N320        N337   1.315       .  A
N320        N342   1.323       .  A
N320       Co357   2.048       .  S
C321        N346   1.339       .  A
C321        C359   1.466       .  S
C321        H366   1.079       .  S
H322        C363   1.081       .  S
C323        N347   1.348   1_655  A
C323        C327   1.469       .  S
C323        H352   1.081       .  S
Co324       N342   2.155       .  S
Co324       N332   2.091       .  S
Co324       N364   2.070       .  S
Co324       N340   2.142       .  S
Co324      Cl368   2.446       .  S
N325        C363   1.339       .  A
N325        N332   1.318       .  A
N325       Co326   2.076       .  S
Co326       N329   2.067       .  S
Co326       N346   2.079       .  S
Co326       N333   2.094       .  S
Co326      Cl368   2.464       .  S
C327        N365   1.343       .  A
C327        C516   1.477       .  S
N328        N335   1.313       .  A
N328        N358   1.315       .  A
N328       Co361   2.053       .  S
N329        N347   1.321       .  A
N329        N365   1.321   1_455  A
N330        C359   1.364       .  A
N330        N340   1.332       .  A
H331        C356   1.082       .  S
N332        N353   1.328       .  A
N333        N351   1.317       .  A
N333        N338   1.327   1_455  A
C334        N338   1.356       .  A
C334        C362   1.453       .  S
C334        C486   1.483       .  S
N335        C350   1.345       .  A
N335       Co357   2.080       .  S
C336        N364   1.337       .  A
C336        C339   1.458       .  S
C336        H370   1.081       .  S
C339        N360   1.356       .  A
C339        C496   1.493       .  S
N340        N346   1.321       .  A
N341        C367   1.339       .  A
N341        N343   1.323       .  A
N341       Co357   2.081       .  S
N342        C356   1.360       .  A
N343        N371   1.327       .  A
N343       Co361   2.110       .  S
H344        C367   1.082       .  S
H345        C362   1.082       .  S
N347       Co361   2.116       .  S
N348        N360   1.327       .  A
N348        N364   1.318       .  A
N348       Co357   2.094       .  S
C349        N353   1.354       .  A
C349        C363   1.456       .  S
C349        C426   1.485       .  S
C350        C369   1.468   1_545  S
C350        H354   1.081   1_545  S
N351        C362   1.334   1_455  A
N351       Co361   2.059       .  S
C355        N371   1.354       .  A
C355        C367   1.461       .  S
C355        C439   1.490       .  S
Co357      Cl368   2.457       .  S
N358        C369   1.347   1_545  A
C359        C726   1.518       .  S
Co361      Cl368   2.432       .  S
C369        C569   1.480       .  S
C372        N390   1.340       .  A
C372        C409   1.475       .  S
C372        C659   1.482   1_545  S
N373        N390   1.317       .  A
N373        N395   1.322       .  A
N373       Co410   2.062       .  S
C374        N399   1.338       .  A
C374        C412   1.462       .  S
C374        H419   1.081       .  S
H375        C416   1.081       .  S
C376        N400   1.346   1_655  A
C376        C380   1.468       .  S
C376        H405   1.081       .  S
Co377       N395   2.123       .  S
Co377       N385   2.093       .  S
Co377       N417   2.086       .  S
Co377       N393   2.127       .  S
Co377      Cl421   2.449       .  S
N378        C416   1.338       .  A
N378        N385   1.316       .  A
N378       Co379   2.070       .  S
Co379       N382   2.063       .  S
Co379       N399   2.077       .  S
Co379       N386   2.084       .  S
Co379      Cl421   2.450       .  S
C380        N418   1.341       .  A
C380        C576   1.474       .  S
N381        N388   1.312       .  A
N381        N411   1.318       .  A
N381       Co414   2.076       .  S
N382        N400   1.321       .  A
N382        N418   1.319   1_455  A
N383        C412   1.360       .  A
N383        N393   1.330       .  A
H384        C409   1.081       .  S
N385        N406   1.327       .  A
N386        N404   1.319       .  A
N386        N391   1.326   1_455  A
C387        N391   1.352       .  A
C387        C415   1.458       .  S
C387        C449   1.484       .  S
N388        C403   1.338   1_545  A
N388       Co410   2.057       .  S
C389        N417   1.338       .  A
C389        C392   1.459       .  S
C389        H423   1.082       .  S
C392        N413   1.346       .  A
C392        C459   1.472       .  S
N393        N399   1.321       .  A
N394        C420   1.337       .  A
N394        N396   1.322       .  A
N394       Co410   2.075       .  S
N395        C409   1.353       .  A
N396        N424   1.328       .  A
N396       Co414   2.110       .  S
H397        C420   1.081       .  S
H398        C415   1.082       .  S
N400       Co414   2.105       .  S
N401        N413   1.324       .  A
N401        N417   1.319       .  A
N401       Co410   2.061       .  S
C402        N406   1.355       .  A
C402        C416   1.455       .  S
C402        C436   1.486       .  S
C403        C422   1.463       .  S
C403        H407   1.077       .  S
N404        C415   1.337   1_455  A
N404       Co414   2.075       .  S
C408        N424   1.356       .  A
C408        C420   1.456       .  S
C408        C429   1.485       .  S
Co410      Cl421   2.449       .  S
N411        C422   1.355   1_545  A
C412        C649   1.504       .  S
Co414      Cl421   2.444       .  S
C422        C509   1.484       .  S
C425        C426   1.413       .  A
C425        C430   1.411       .  A
C425       Br432   1.930       .  S
C426        C427   1.412       .  A
C427        C428   1.410       .  A
C427       Br434   1.932       .  S
C428        C429   1.413       .  A
C428       Br433   1.933       .  S
C429        C430   1.412       .  A
C430       Br431   1.933       .  S
C435        C436   1.412       .  A
C435        C440   1.409   1_556  A
C435       Br442   1.934       .  S
C436        C437   1.415       .  A
C437        C438   1.413   1_556  A
C437       Br444   1.935       .  S
C438        C439   1.415       .  A
C438       Br443   1.933       .  S
C439        C440   1.412       .  A
C440       Br441   1.928       .  S
C445        C446   1.411       .  A
C445        C450   1.411       .  A
C445       Br452   1.934       .  S
C446        C447   1.418       .  A
C447        C448   1.407       .  A
C447       Br454   1.934       .  S
C448        C449   1.407       .  A
C448       Br453   1.934       .  S
C449        C450   1.417       .  A
C450       Br451   1.931       .  S
C455        C456   1.407       .  A
C455        C460   1.411       .  A
C455       Br462   1.928       .  S
C456        C457   1.418       .  A
C457        C458   1.402       .  A
C457       Br464   1.925       .  S
C458        C459   1.402       .  A
C458       Br463   1.936       .  S
C459        C460   1.414       .  A
C460       Br461   1.929       .  S
C465        C466   1.417       .  A
C465        C470   1.411       .  A
C465       Br472   1.932       .  S
C466        C467   1.420       .  A
C467        C468   1.410       .  A
C467       Br474   1.932       .  S
C468        C469   1.404       .  A
C468       Br473   1.931       .  S
C469        C470   1.409       .  A
C470       Br471   1.927       .  S
C475        C476   1.405       .  A
C475        C480   1.407       .  A
C475       Br482   1.932       .  S
C476        C477   1.404       .  A
C477        C478   1.408       .  A
C477       Br484   1.931       .  S
C478        C479   1.417       .  A
C478       Br483   1.932       .  S
C479        C480   1.420       .  A
C480       Br481   1.934       .  S
C485        C486   1.410       .  A
C485        C490   1.409       .  A
C485       Br492   1.931       .  S
C486        C487   1.416       .  A
C487        C488   1.409       .  A
C487       Br494   1.929       .  S
C488        C489   1.408       .  A
C488       Br493   1.931       .  S
C489        C490   1.411       .  A
C490       Br491   1.930       .  S
C495        C496   1.418       .  A
C495        C500   1.414       .  A
C495       Br502   1.934       .  S
C496        C497   1.407       .  A
C497        C498   1.407       .  A
C497       Br504   1.931       .  S
C498        C499   1.426       .  A
C498       Br503   1.941       .  S
C499        C500   1.416       .  A
C500       Br501   1.929       .  S
C505        C506   1.405   1_455  A
C505        C510   1.411       .  A
C505       Br512   1.929       .  S
C506        C507   1.415       .  A
C507        C508   1.394       .  A
C507       Br514   1.924       .  S
C508        C509   1.402   1_655  A
C508       Br513   1.932       .  S
C509        C510   1.417       .  A
C510       Br511   1.924       .  S
C515        C516   1.409       .  A
C515        C520   1.407       .  A
C515       Br522   1.926       .  S
C516        C517   1.411       .  A
C517        C518   1.411       .  A
C517       Br524   1.930   1_655  S
C518        C519   1.410       .  A
C518       Br523   1.926   1_545  S
C519        C520   1.409       .  A
C520       Br521   1.933       .  S
C525        C526   1.400       .  A
C525        C530   1.408       .  A
C525       Br532   1.939       .  S
C526        C527   1.411       .  A
C527        C528   1.414       .  A
C527       Br534   1.939       .  S
C528        C529   1.425       .  A
C528       Br533   1.927       .  S
C529        C530   1.436       .  A
C530       Br531   1.943       .  S
C535        C536   1.416       .  A
C535        C540   1.404       .  A
C535       Br542   1.933       .  S
C536        C537   1.423       .  A
C537        C538   1.406       .  A
C537       Br544   1.935       .  S
C538        C539   1.404       .  A
C538       Br543   1.935       .  S
C539        C540   1.402       .  A
C540       Br541   1.932       .  S
C545        C546   1.417       .  A
C545        C550   1.408       .  A
C545       Br552   1.932       .  S
C546        C547   1.408       .  A
C547        C548   1.408       .  A
C547       Br554   1.931       .  S
C548        C549   1.414       .  A
C548       Br553   1.932       .  S
C549        C550   1.407       .  A
C550       Br551   1.934       .  S
C555        C556   1.407       .  A
C555        C560   1.406       .  A
C555       Br562   1.931       .  S
C556        C557   1.419       .  A
C557        C558   1.406       .  A
C557       Br564   1.933       .  S
C558        C559   1.404       .  A
C558       Br563   1.934       .  S
C559        C560   1.412       .  A
C560       Br561   1.932       .  S
C565        C566   1.406   1_455  A
C565        C570   1.412       .  A
C565       Br572   1.929       .  S
C566        C567   1.411       .  A
C567        C568   1.399       .  A
C567       Br574   1.930       .  S
C568        C569   1.408   1_655  A
C568       Br573   1.937       .  S
C569        C570   1.419       .  A
C570       Br571   1.927       .  S
C575        C576   1.411       .  A
C575        C580   1.404       .  A
C575       Br582   1.931       .  S
C576        C577   1.410       .  A
C577        C578   1.406       .  A
C577       Br584   1.923   1_545  S
C578        C579   1.407       .  A
C578       Br583   1.932   1_545  S
C579        C580   1.405       .  A
C580       Br581   1.926       .  S
C585        C586   1.400       .  A
C585        C590   1.402       .  A
C585       Br592   1.932       .  S
C586        C587   1.411       .  A
C587        C588   1.408       .  A
C587       Br594   1.930   1_554  S
C588        C589   1.406       .  A
C588       Br593   1.927       .  S
C589        C590   1.414       .  A
C590       Br591   1.923       .  S
C595        C596   1.398       .  A
C595        C600   1.398       .  A
C595       Br602   1.934       .  S
C596        C597   1.411       .  A
C597        C598   1.409       .  A
C597       Br604   1.930       .  S
C598        C599   1.406       .  A
C598       Br603   1.927       .  S
C599        C600   1.414       .  A
C600       Br601   1.919   1_554  S
C605        C606   1.402       .  A
C605        C610   1.409   1_556  A
C605       Br612   1.923       .  S
C606        C607   1.406   1_556  A
C607        C608   1.399       .  A
C607       Br614   1.918       .  S
C608        C609   1.409       .  A
C608       Br613   1.934       .  S
C609        C610   1.420       .  A
C610       Br611   1.925       .  S
C615        C616   1.404       .  A
C615        C620   1.404       .  A
C615       Br622   1.938       .  S
C616        C617   1.414       .  A
C617        C618   1.406       .  A
C617       Br624   1.929       .  S
C618        C619   1.407       .  A
C618       Br623   1.933       .  S
C619        C620   1.427       .  A
C620       Br621   1.944       .  S
C625        C626   1.402       .  A
C625        C630   1.413       .  A
C625       Br632   1.931       .  S
C626        C627   1.411       .  A
C627        C628   1.409       .  A
C627       Br634   1.920       .  S
C628        C629   1.414       .  A
C628       Br633   1.935       .  S
C629        C630   1.424       .  A
C630       Br631   1.932       .  S
C635        C636   1.405       .  A
C635        C640   1.407       .  A
C635       Br642   1.931       .  S
C636        C637   1.411       .  A
C637        C638   1.412   1_455  A
C637       Br644   1.929       .  S
C638        C639   1.410       .  A
C638       Br643   1.928       .  S
C639        C640   1.413   1_655  A
C640       Br641   1.931   1_455  S
C645        C646   1.407       .  A
C645        C650   1.416       .  A
C645       Br652   1.928       .  S
C646        C647   1.414       .  A
C647        C648   1.413       .  A
C647       Br654   1.932       .  S
C648        C649   1.416       .  A
C648       Br653   1.932       .  S
C649        C650   1.422       .  A
C650       Br651   1.931       .  S
C655        C656   1.420       .  A
C655        C660   1.408       .  A
C655       Br662   1.932       .  S
C656        C657   1.427       .  A
C657        C658   1.414       .  A
C657       Br664   1.933       .  S
C658        C659   1.402       .  A
C658       Br663   1.929       .  S
C659        C660   1.407       .  A
C660       Br661   1.928       .  S
C665        C666   1.414       .  A
C665        C670   1.408       .  A
C665       Br672   1.936       .  S
C666        C667   1.418       .  A
C667        C668   1.409       .  A
C667       Br674   1.932       .  S
C668        C669   1.410       .  A
C668       Br673   1.937       .  S
C669        C670   1.411       .  A
C670       Br671   1.933       .  S
C675        C676   1.416       .  A
C675        C680   1.411       .  A
C675       Br682   1.933       .  S
C676        C677   1.410       .  A
C677        C678   1.407       .  A
C677       Br684   1.939       .  S
C678        C679   1.424       .  A
C678       Br683   1.934       .  S
C679        C680   1.414       .  A
C680       Br681   1.936       .  S
C685        C686   1.409       .  A
C685        C690   1.409       .  A
C685       Br692   1.931       .  S
C686        C687   1.396       .  A
C687        C688   1.403       .  A
C687       Br694   1.930       .  S
C688        C689   1.427       .  A
C688       Br693   1.937       .  S
C689        C690   1.420       .  A
C690       Br691   1.927       .  S
C695        C696   1.408       .  A
C695        C700   1.409       .  A
C695       Br702   1.926       .  S
C696        C697   1.407       .  A
C697        C698   1.406       .  A
C697       Br704   1.931       .  S
C698        C699   1.410       .  A
C698       Br703   1.928       .  S
C699        C700   1.411       .  A
C700       Br701   1.930       .  S
C705        C706   1.428       .  A
C705        C710   1.411       .  A
C705       Br712   1.938       .  S
C706        C707   1.417       .  A
C707        C708   1.407       .  A
C707       Br714   1.930       .  S
C708        C709   1.410       .  A
C708       Br713   1.934       .  S
C709        C710   1.405       .  A
C710       Br711   1.935       .  S
C715        C716   1.405       .  A
C715        C720   1.405       .  A
C715       Br722   1.926       .  S
C716        C717   1.412       .  A
C717        C718   1.410   1_455  A
C717       Br724   1.930       .  S
C718        C719   1.407       .  A
C718       Br723   1.928       .  S
C719        C720   1.411   1_655  A
C720       Br721   1.931   1_455  S
C725        C726   1.428       .  A
C725        C730   1.419       .  A
C725       Br732   1.930       .  S
C726        C727   1.421       .  A
C727        C728   1.416       .  A
C727       Br734   1.933       .  S
C728        C729   1.414       .  A
C728       Br733   1.932       .  S
C729        C730   1.404       .  A
C730       Br731   1.928       .  S
C735        C736   1.410       .  A
C735        C740   1.410       .  A
C735       Br742   1.934       .  S
C736        C737   1.413       .  A
C737        C738   1.420       .  A
C737       Br744   1.922       .  S
C738        C739   1.412       .  A
C738       Br743   1.926       .  S
C739        C740   1.419       .  A
C740       Br741   1.936       .  S
