geometry optimzed in LAMMPS
_audit_creation_date              2020-11-30 
_audit_creation_method            'lammps2cif' 
_symmetry_space_group_name_H-M    'P1' 
_symmetry_Int_Tables_number       1 
_symmetry_cell_setting            triclinic 
loop_ 
_symmetry_equiv_pos_as_xyz 
  x,y,z 
_cell_length_a                    28.37972114 
_cell_length_b                    28.939206623401006 
_cell_length_c                    28.86821426380603 
_cell_angle_alpha                 90.1341709396385 
_cell_angle_beta                  89.7070347834927 
_cell_angle_gamma                 88.20697142428138 
loop_ 
_atom_site_label 
_atom_site_type_symbol 
_atom_site_fract_x 
_atom_site_fract_y 
_atom_site_fract_z 
_atom_site_charge 
O1          O  0.42895728  0.57802244  0.06432150    -0.80600
O2          O  0.39883799  0.52238642  0.91843629    -0.80600
O3          O  0.48643560  0.60961294  0.94497550    -0.80600
O4          O  0.37865094  0.48584860  0.04897887    -0.80600
O5          O  0.48311314  0.55515504  0.89108426    -0.80700
O6          O  0.41995161  0.49927341  0.11292823    -0.80600
O7          O  0.36923571  0.46834769  0.95935801    -0.80600
O8          O  0.49453951  0.61079930  0.04143831    -0.80600
C9          C  0.45660231  0.61167904  0.06494309     1.09100
C10         C  0.36523251  0.49535773  0.92588789     1.09000
C11         C  0.48349870  0.59792062  0.90256773     1.09100
C12         C  0.38042632  0.49220598  0.09352253     1.09000
O13         O  0.48859750  0.45085160  0.06308877    -0.80600
O14         O  0.53263688  0.47685771  0.93436046    -0.80700
O15         O  0.56321522  0.53665313  0.03539654    -0.80600
O16         O  0.45121425  0.42156466  0.94722749    -0.80600
O17         O  0.45956615  0.45934605  0.88046779    -0.80700
O18         O  0.51339442  0.53235932  0.09415375    -0.80600
O19         O  0.43131049  0.41378029  0.03567989    -0.80600
O20         O  0.56282686  0.54465038  0.93893437    -0.80600
Co21       Co  0.45613795  0.51403966  0.05895438     1.51500
Co22       Co  0.46603214  0.50020927  0.93084312     1.51700
Co23       Co  0.52325020  0.57222441  0.99072061     1.51600
Co24       Co  0.42593903  0.46899652  0.99637179     1.51500
O25         O  0.47155639  0.52493331  0.99333917    -1.42500
C26         C  0.46577087  0.41398088  0.06207745     1.09000
C27         C  0.56485456  0.50383426  0.92325894     1.09100
C28         C  0.55532390  0.52999328  0.07819450     1.09000
C29         C  0.45888871  0.42135101  0.90276965     1.09000
C30         C  0.20027657  0.47030950  0.18423397     0.79700
N31         N  0.17849531  0.43470797  0.16322618    -0.78600
C32         C  0.13539818  0.42162869  0.17745090     0.82200
N33         N  0.11398851  0.44449450  0.21297834    -0.78500
C34         C  0.13469467  0.48005392  0.23484414     0.82300
N35         N  0.17845976  0.49304054  0.22054347    -0.80200
C36         C  0.76350342  0.44683230  0.25190408     0.79700
N37         N  0.72548559  0.47058086  0.23357974    -0.78600
C38         C  0.71073256  0.46035974  0.18973756     0.82200
N39         N  0.73445147  0.42740629  0.16461599    -0.78500
C40         C  0.77215876  0.40426925  0.18253603     0.82300
N41         N  0.78676944  0.41430805  0.22579472    -0.80200
C42         C  0.22616940  0.42491604  0.80091267     0.79700
N43         N  0.20651908  0.38502896  0.81545504    -0.78600
C44         C  0.17658578  0.36200289  0.78786870     0.82200
N45         N  0.16667792  0.37875330  0.74540383    -0.78500
C46         C  0.18524107  0.41827791  0.72989725     0.82300
N47         N  0.21467507  0.44205475  0.75808682    -0.80200
C48         C  0.76751096  0.45927171  0.72834828     0.79700
N49         N  0.79114254  0.42056711  0.74295696    -0.78600
C50         C  0.77591439  0.39630559  0.77983390     0.82200
N51         N  0.73631471  0.41112039  0.80248811    -0.78500
C52         C  0.71207241  0.45015782  0.78923784     0.82300
N53         N  0.72817358  0.47479431  0.75210736    -0.80200
N54         N  0.96691733  0.26127821  0.91200332    -0.37100
N55         N  0.88871732  0.26510947  0.97820064    -0.57600
N56         N  0.96181475  0.27352518  0.04893766    -0.37100
N57         N  0.04024040  0.26266357  0.98427578    -0.57600
C58         C  0.92936530  0.25269343  0.88515444     0.26500
C59         C  0.00611260  0.24725445  0.88856430     0.26500
C60         C  0.92296110  0.26632133  0.07451724     0.26500
C61         C  0.99934496  0.26865383  0.07711707     0.26500
C62         C  0.86654876  0.27965196  0.93922577     0.35100
C63         C  0.86362083  0.28356036  0.01408148     0.35100
C64         C  0.06380351  0.27472037  0.94556972     0.35100
C65         C  0.06032032  0.28560351  0.01964291     0.35100
C66         C  0.94463121  0.23208918  0.84415231    -0.22400
C67         C  0.99319663  0.22809521  0.84651729    -0.22400
C68         C  0.93595570  0.25535960  0.11952984    -0.22400
C69         C  0.98443515  0.25698981  0.12119912    -0.22400
C70         C  0.82652929  0.30615577  0.95060518    -0.23400
C71         C  0.82451733  0.30831976  0.99797435    -0.23400
C72         C  0.09930054  0.30474972  0.95668933    -0.23400
C73         C  0.09712452  0.31152738  0.00354246    -0.23400
C74         C  0.88340589  0.27102428  0.89364838    -0.18800
C75         C  0.05220786  0.26065415  0.90010715    -0.18800
C76         C  0.04418517  0.28493579  0.06594157    -0.18800
C77         C  0.87729362  0.28092538  0.06102307    -0.18800
H78         H  0.92322277  0.22324534  0.81471996     0.14100
H79         H  0.01653790  0.21589628  0.81902011     0.14100
H80         H  0.91264239  0.25070977  0.14883129     0.14100
H81         H  0.00594026  0.25366804  0.15193823     0.14100
H82         H  0.80213924  0.32380130  0.92752323     0.12400
H83         H  0.79835074  0.32769529  0.01808013     0.12400
H84         H  0.12291703  0.32209009  0.93345271     0.12400
H85         H  0.11889961  0.33459031  0.02297134     0.12400
H86         H  0.96610103  0.28154557  0.94186424     0.25700
H87         H  0.96223738  0.28823717  0.01605750     0.25700
O88         O  0.02003091  0.54364115  0.42733391    -0.80600
O89         O  0.93106179  0.57624404  0.46617827    -0.80600
O90         O  0.91221234  0.46301286  0.41899947    -0.80600
O91         O  0.04306092  0.57946720  0.54153333    -0.80600
O92         O  0.86114357  0.51835912  0.44414474    -0.80700
O93         O  0.09311257  0.56124559  0.48380497    -0.80600
O94         O  0.94466487  0.59293335  0.53885998    -0.80600
O95         O  0.01008097  0.47286665  0.40317347    -0.80600
C96         C  0.02258209  0.51379213  0.39539181     1.09100
C97         C  0.93053136  0.60520574  0.49908735     1.09000
C98         C  0.87322346  0.48781612  0.41422675     1.09100
C99         C  0.08020529  0.58860356  0.51642961     1.09000
O100        O  0.07708609  0.49458781  0.54332512    -0.80600
O101        O  0.88412299  0.45266951  0.50382005    -0.80700
O102        O  0.03198291  0.41455063  0.48147000    -0.80600
O103        O  0.93015714  0.50945136  0.59041411    -0.80600
O104        O  0.87695661  0.53366321  0.54059210    -0.80700
O105        O  0.08126399  0.46700194  0.45983282    -0.80600
O106        O  0.02361579  0.49513119  0.59703135    -0.80600
O107        O  0.94192091  0.40290162  0.49749328    -0.80600
Co108      Co  0.04247738  0.52061950  0.48774245     1.51500
Co109      Co  0.91393614  0.51258545  0.48332977     1.51700
Co110      Co  0.97473739  0.44280205  0.45482105     1.51600
Co111      Co  0.98463392  0.53994413  0.56232548     1.51500
O112        O  0.97933707  0.49569300  0.50465419    -1.42500
C113        C  0.06507810  0.48633172  0.58433901     1.09000
C114        C  0.89960839  0.41146700  0.50660016     1.09100
C115        C  0.07313270  0.42528322  0.47038583     1.09000
C116        C  0.88767984  0.52001565  0.58127364     1.09000
C117        C  0.51255801  0.75566755  0.17882030     0.79700
N118        N  0.55490732  0.76440865  0.15911013    -0.78600
C119        C  0.58504850  0.79371950  0.17925045     0.82200
N120        N  0.57217703  0.81475610  0.21941421    -0.78500
C121        C  0.53012566  0.80679609  0.23997127     0.82300
N122        N  0.49993511  0.77703178  0.21949726    -0.80200
C123        C  0.51368939  0.25735146  0.17985696     0.79700
N124        N  0.49424832  0.24222007  0.22045343    -0.78600
C125        C  0.51297331  0.20333367  0.24144366     0.82200
N126        N  0.54978265  0.17969522  0.22112408    -0.78500
C127        C  0.56850123  0.19452894  0.18075195     0.82300
N128        N  0.55042784  0.23318874  0.16066272    -0.80200
C129        C  0.53126078  0.20119357  0.74582796     0.79700
N130        N  0.56806611  0.18052849  0.76855594    -0.78600
C131        C  0.58360337  0.19816732  0.80893168     0.82200
N132        N  0.56145637  0.23604744  0.82716218    -0.78500
C133        C  0.52498515  0.25741404  0.80491879     0.82300
N134        N  0.50959255  0.23987700  0.76403164    -0.80200
C135        C  0.55034550  0.80929027  0.73697693     0.79700
N136        N  0.58718136  0.82245722  0.76322005    -0.78600
C137        C  0.59757107  0.80116517  0.80369321     0.82200
N138        N  0.57083698  0.76605536  0.81824837    -0.78500
C139        C  0.53417019  0.75169133  0.79248836     0.82300
N140        N  0.52330445  0.77374336  0.75183008    -0.80200
N141        N  0.71017821  0.06048075  0.99965854    -0.37100
N142        N  0.72161130  0.99474313  0.92353839    -0.57600
N143        N  0.72008508  0.92436520  0.99622422    -0.37100
N144        N  0.71505588  0.99019269  0.07256840    -0.57600
C145        C  0.71839321  0.08800051  0.96298684     0.26500
C146        C  0.71631059  0.08584161  0.03831489     0.26500
C147        C  0.73353619  0.89991577  0.95834416     0.26500
C148        C  0.72929994  0.89758606  0.03348089     0.26500
C149        C  0.70216444  0.03171761  0.90134578     0.35100
C150        C  0.70893343  0.95708695  0.89936463     0.35100
C151        C  0.69485314  0.02658765  0.09543727     0.35100
C152        C  0.69886638  0.95176088  0.09311984     0.35100
C153        C  0.73123999  0.13121421  0.97841314    -0.22400
C154        C  0.72984171  0.12986514  0.02619116    -0.22400
C155        C  0.75267074  0.85735767  0.97158178    -0.22400
C156        C  0.75021885  0.85595428  0.01930702    -0.22400
C157        C  0.67833771  0.01751222  0.86223136    -0.23400
C158        C  0.68279099  0.97025417  0.86088925    -0.23400
C159        C  0.66696217  0.01127433  0.13147770    -0.23400
C160        C  0.66930216  0.96391990  0.12988753    -0.23400
C161        C  0.70382182  0.07776991  0.91756802    -0.18800
C162        C  0.69904599  0.07329638  0.08227913    -0.18800
C163        C  0.70894562  0.90609656  0.07739020    -0.18800
C164        C  0.71809888  0.91095254  0.91338169    -0.18800
H165        H  0.73712229  0.16146226  0.95741410     0.14100
H166        H  0.73445747  0.15888425  0.04928953     0.14100
H167        H  0.76361598  0.82905873  0.94900072     0.14100
H168        H  0.75882731  0.82632160  0.04081612     0.14100
H169        H  0.65806409  0.03851997  0.83812544     0.12400
H170        H  0.66678657  0.94817492  0.83551799     0.12400
H171        H  0.64540863  0.03187262  0.15522238     0.12400
H172        H  0.64967644  0.94142274  0.15216172     0.12400
H173        H  0.69420765  0.02890940  0.99829735     0.25700
H174        H  0.69907259  0.95419872  0.99617011     0.25700
C175        C  0.18658382  0.75563367  0.55428849     0.79700
N176        N  0.16676754  0.78347018  0.58737718    -0.78600
C177        C  0.18570572  0.82385048  0.59956277     0.82200
N178        N  0.22488222  0.83785412  0.57768975    -0.78500
C179        C  0.24565988  0.81123612  0.54414211     0.82300
N180        N  0.22641376  0.76997035  0.53199077    -0.80200
C181        C  0.74384286  0.18788506  0.54354451     0.79700
N182        N  0.76687923  0.17124536  0.58153973    -0.78600
C183        C  0.79908900  0.19683845  0.60356695     0.82200
N184        N  0.80897557  0.23911972  0.58745946    -0.78500
C185        C  0.78691135  0.25638268  0.54955035     0.82300
N186        N  0.75437713  0.23070107  0.52709247    -0.80200
C187        C  0.18341567  0.27309831  0.53454177     0.79700
N188        N  0.22372727  0.24812364  0.52413939    -0.78600
C189        C  0.23662288  0.21055571  0.55037721     0.82200
N190        N  0.20834253  0.19787098  0.58599230    -0.78500
C191        C  0.16790110  0.22211168  0.59596160     0.82300
N192        N  0.15523971  0.25920164  0.56977020    -0.80200
C193        C  0.75696895  0.82057346  0.54136443     0.79700
N194        N  0.77401320  0.84486535  0.57745275    -0.78600
C195        C  0.81709006  0.83414143  0.59473107     0.82200
N196        N  0.84367860  0.79962199  0.57516883    -0.78500
C197        C  0.82764824  0.77492757  0.53873140     0.82300
N198        N  0.78366701  0.78552039  0.52186059    -0.80200
N199        N  0.98211952  0.13541905  0.73638729    -0.37100
N200        N  0.91276672  0.02713148  0.75695090    -0.57600
N201        N  0.99114742  0.96380389  0.73149734    -0.37100
N202        N  0.06442323  0.03260613  0.73187375    -0.57600
C203        C  0.94928467  0.11698494  0.76441492     0.26500
C204        C  0.02441512  0.12086347  0.75295807     0.26500
C205        C  0.95463104  0.93511517  0.73668732     0.26500
C206        C  0.03089424  0.93666938  0.72855757     0.26500
C207        C  0.88420888  0.06533221  0.75494622     0.35100
C208        C  0.88727957  0.99170326  0.74180927     0.35100
C209        C  0.08657138  0.07162923  0.72028980     0.35100
C210        C  0.08976764  0.99723542  0.71304639     0.35100
C211        C  0.97078615  0.09524693  0.80176239    -0.22400
C212        C  0.01842418  0.09753945  0.79439249    -0.22400
C213        C  0.97133122  0.88973062  0.73849078    -0.22400
C214        C  0.01946956  0.89069767  0.73396915    -0.22400
C215        C  0.83947635  0.05347773  0.74084352    -0.23400
C216        C  0.84144976  0.00669595  0.73252653    -0.23400
C217        C  0.12709993  0.06099530  0.69505020    -0.23400
C218        C  0.12929575  0.01367634  0.69064145    -0.23400
C219        C  0.90244688  0.11002484  0.75087174    -0.18800
C220        C  0.06520190  0.11603269  0.72526554    -0.18800
C221        C  0.07558065  0.95094236  0.71278658    -0.18800
C222        C  0.90670680  0.94779092  0.73026073    -0.18800
H223        H  0.95390903  0.07557699  0.82866325     0.14100
H224        H  0.04553152  0.07974008  0.81440437     0.14100
H225        H  0.95060129  0.85900831  0.74021723     0.14100
H226        H  0.04312920  0.86070874  0.73148279     0.14100
H227        H  0.81000756  0.07677210  0.73303219     0.12400
H228        H  0.81342160  0.98667452  0.71815474     0.12400
H229        H  0.15103778  0.08488176  0.67938165     0.12400
H230        H  0.15565219  0.99401615  0.67105547     0.12400
H231        H  0.97595279  0.15035276  0.70410953     0.25700
H232        H  0.98823721  0.99900256  0.72429939     0.25700
O233        O  0.52163952  0.93787847  0.42670036    -0.80600
O234        O  0.55090269  0.08234031  0.47141868    -0.80600
O235        O  0.45804760  0.04993283  0.39262306    -0.80600
O236        O  0.57967684  0.95483096  0.51134607    -0.80600
O237        O  0.46438442  0.10777023  0.44258073    -0.80700
O238        O  0.53944525  0.89000694  0.50475029    -0.80600
O239        O  0.58749415  0.04422794  0.52446192    -0.80600
O240        O  0.45230182  0.95329284  0.39592144    -0.80600
C241        C  0.49236660  0.93270136  0.39423846     1.09100
C242        C  0.58809231  0.07537321  0.49498088     1.09000
C243        C  0.46343816  0.09272300  0.40076682     1.09100
C244        C  0.57864033  0.91012725  0.50807650     1.09000
O245        O  0.47737876  0.93814195  0.55895789    -0.80600
O246        O  0.42140105  0.07048912  0.52631471    -0.80700
O247        O  0.38880049  0.96215000  0.47224132    -0.80600
O248        O  0.50990040  0.05751947  0.57689554    -0.80600
O249        O  0.49574404  0.12326557  0.53830919    -0.80700
O250        O  0.44300585  0.90577041  0.47884637    -0.80600
O251        O  0.53709377  0.97181604  0.58620530    -0.80000
O252        O  0.38635219  0.05847252  0.46049161    -0.80600
Co253      Co  0.50006409  0.94274965  0.49212186     1.51500
Co254      Co  0.48593679  0.07146962  0.49932501     1.51700
Co255      Co  0.42503193  0.00588341  0.43352515     1.51600
Co256      Co  0.53215598  0.00771944  0.52968150     1.51500
O257        O  0.47900243  0.00696894  0.47990556    -1.42500
C258        C  0.50778491  0.94120967  0.59082014     1.09000
C259        C  0.38684348  0.07797407  0.49970009     1.09100
C260        C  0.40014789  0.92013242  0.48096075     1.09000
C261        C  0.50209872  0.10189226  0.57665611     1.09000
C262        C  0.70805519  0.87441175  0.49542855    -0.26800
C263        C  0.71040944  0.83481987  0.52324323    -0.14900
C264        C  0.66836227  0.81733135  0.54192024     0.35800
C265        C  0.62532728  0.84100803  0.53366701    -0.26200
C266        C  0.62348453  0.88269658  0.50886728    -0.15500
C267        C  0.66543986  0.89889960  0.48862127     0.36900
N268        N  0.66637504  0.94062377  0.46203059    -0.89700
H269        H  0.74025178  0.88841703  0.48172155     0.18000
H270        H  0.59353079  0.82831851  0.54950211     0.18000
N271        N  0.66826448  0.77755999  0.57168547    -0.88800
H272        H  0.65823489  0.96875114  0.48362259     0.35300
H273        H  0.64113122  0.93911747  0.43596572     0.40400
H274        H  0.70202159  0.76271364  0.57532429     0.40100
H275        H  0.64803082  0.75262000  0.55562424     0.34900
C276        C  0.86655677  0.89864713  0.61612131    -0.26800
C277        C  0.83732326  0.86346698  0.63051089    -0.14900
C278        C  0.82850658  0.85673980  0.67811233     0.35800
C279        C  0.85089558  0.88478274  0.71087415    -0.26200
C280        C  0.88103344  0.91947477  0.69626691    -0.15500
C281        C  0.88814748  0.92683534  0.64830665     0.36900
N282        N  0.91727058  0.96275648  0.63134109    -0.89700
H283        H  0.87280617  0.90411419  0.57947906     0.18000
H284        H  0.84526320  0.87944135  0.74759420     0.18000
N285        N  0.79780616  0.82098301  0.69280641    -0.88800
H286        H  0.95148915  0.95712971  0.64363456     0.35300
H287        H  0.90414238  0.99448897  0.64405900     0.40400
H288        H  0.76396717  0.82959845  0.68079818     0.40100
H289        H  0.79555440  0.82018388  0.72895257     0.34900
C290        C  0.34098886  0.12451821  0.55899931    -0.26800
C291        C  0.34878084  0.11268092  0.51232518    -0.14900
C292        C  0.32184532  0.13635804  0.47803675     0.35800
C293        C  0.28710981  0.16971882  0.49103930    -0.26200
C294        C  0.27804654  0.18008395  0.53776702    -0.15500
C295        C  0.30592477  0.15772021  0.57208206     0.36900
N296        N  0.29863546  0.16892192  0.62017732    -0.89700
H297        H  0.36208489  0.10751071  0.58549894     0.18000
H298        H  0.26610510  0.18656149  0.46435089     0.18000
N299        N  0.32994553  0.12725264  0.42978478    -0.88800
H300        H  0.30704599  0.20354933  0.62474890     0.35300
H301        H  0.32179855  0.14943233  0.64098219     0.40400
H302        H  0.33900889  0.15816808  0.41384222     0.40100
H303        H  0.29837585  0.11660778  0.41528175     0.34900
C304        C  0.11428757  0.18327224  0.70929786    -0.26800
C305        C  0.08041048  0.15281887  0.69314627    -0.14900
C306        C  0.07203817  0.14994779  0.64480645     0.35800
C307        C  0.09857839  0.17610522  0.61415376    -0.26200
C308        C  0.13477742  0.20364272  0.63018437    -0.15500
C309        C  0.14220700  0.20816373  0.67815556     0.36900
N310        N  0.17970439  0.23589323  0.69482620    -0.89700
H311        H  0.12166047  0.18463263  0.74607525     0.18000
H312        H  0.09317317  0.17230328  0.57720178     0.18000
N313        N  0.03933225  0.11851711  0.62543886    -0.88800
H314        H  0.18101151  0.23500889  0.73100954     0.35300
H315        H  0.17170993  0.27015135  0.68575723     0.40400
H316        H  0.00554477  0.12685560  0.63771292     0.40100
H317        H  0.04852312  0.08478294  0.63537430     0.34900
C318        C  0.67330714  0.08366789  0.50898580    -0.26800
C319        C  0.63074170  0.10420681  0.49334680    -0.14900
C320        C  0.62772777  0.15284352  0.48890073     0.35800
C321        C  0.66631625  0.17969201  0.50240120    -0.26200
C322        C  0.70741277  0.15897236  0.52135537    -0.15500
C323        C  0.71108609  0.11020970  0.52322005     0.36900
N324        N  0.75276956  0.08721788  0.54071761    -0.89700
H325        H  0.67632738  0.04648806  0.51313950     0.18000
H326        H  0.66304728  0.21704898  0.50091646     0.18000
N327        N  0.58442895  0.17500448  0.47415779    -0.88800
H328        H  0.76607208  0.06475921  0.51505970     0.35300
H329        H  0.74323064  0.06735139  0.56929502     0.40400
H330        H  0.57949238  0.16556743  0.43961951     0.40100
H331        H  0.58723483  0.21093679  0.47455018     0.34900
C332        C  0.82054609  0.19283829  0.68671449    -0.26800
C333        C  0.82744761  0.17697867  0.64116930    -0.14900
C334        C  0.86269842  0.14318341  0.63140749     0.35800
C335        C  0.88954792  0.12439963  0.66756339    -0.26200
C336        C  0.88136634  0.13862506  0.71352860    -0.15500
C337        C  0.84692220  0.17327456  0.72316441     0.36900
N338        N  0.83759610  0.18731979  0.76995213    -0.89700
H339        H  0.79372930  0.21935310  0.69411720     0.18000
H340        H  0.91545169  0.09700390  0.66012114     0.18000
N341        N  0.87100759  0.12770413  0.58481869    -0.88800
H342        H  0.84252473  0.22289297  0.77208161     0.35300
H343        H  0.80217276  0.18140875  0.77729164     0.40400
H344        H  0.90617876  0.13367963  0.57642050     0.40100
H345        H  0.86632115  0.09202176  0.58372747     0.34900
C346        C  0.33216378  0.82051475  0.53453473    -0.26800
C347        C  0.28620414  0.83097499  0.51935769    -0.14900
C348        C  0.27839975  0.86891528  0.48951792     0.35800
C349        C  0.31621771  0.89668459  0.47683717    -0.26200
C350        C  0.36216009  0.88742899  0.49312496    -0.15500
C351        C  0.37028557  0.84819571  0.52173479     0.36900
N352        N  0.41659295  0.83770376  0.53951021    -0.89700
H353        H  0.33782813  0.79232118  0.55871189     0.18000
H354        H  0.30954170  0.92626979  0.45461978     0.18000
N355        N  0.23144966  0.88026506  0.47387080    -0.88800
H356        H  0.41660510  0.80762012  0.55950132     0.35300
H357        H  0.42510677  0.86448206  0.56194339     0.40400
H358        H  0.22065501  0.85285789  0.45321809     0.40100
H359        H  0.23132002  0.90952775  0.45268626     0.34900
C360        C  0.11399125  0.87022704  0.61579519    -0.26800
C361        C  0.15891534  0.85545888  0.63020575    -0.14900
C362        C  0.17691669  0.87109977  0.67266121     0.35800
C363        C  0.14911918  0.90179167  0.70010267    -0.26200
C364        C  0.10423731  0.91694531  0.68518338    -0.15500
C365        C  0.08686791  0.90127008  0.64250655     0.36900
N366        N  0.04191892  0.91765563  0.62582488    -0.89700
H367        H  0.10030096  0.85839177  0.58298147     0.18000
H368        H  0.16240061  0.91420827  0.73281880     0.18000
N369        N  0.22290363  0.85554469  0.68769479    -0.88800
H370        H  0.04703030  0.93347855  0.59374581     0.35300
H371        H  0.02084358  0.88910474  0.62071073     0.40400
H372        H  0.22186875  0.81986589  0.69303903     0.40100
H373        H  0.23083859  0.87036745  0.71967678     0.34900
C374        C  0.56313023  0.89030275  0.63493881    -0.26800
C375        C  0.51618133  0.90560579  0.62727852    -0.14900
C376        C  0.47995780  0.88621785  0.65348492     0.35800
C377        C  0.49125003  0.85207603  0.68707455    -0.26200
C378        C  0.53829317  0.83759078  0.69536273    -0.15500
C379        C  0.57452095  0.85628662  0.66803608     0.36900
N380        N  0.62282516  0.84087101  0.67424093    -0.89700
H381        H  0.59125312  0.90472507  0.61452864     0.18000
H382        H  0.46349658  0.83857164  0.70854053     0.18000
N383        N  0.43222319  0.90279942  0.64740958    -0.88800
H384        H  0.64514349  0.85811475  0.65161404     0.35300
H385        H  0.62529152  0.80586728  0.66519469     0.40400
H386        H  0.43054323  0.93760105  0.65731108     0.40100
H387        H  0.40962586  0.88542102  0.66960288     0.34900
C388        C  0.67688214  0.83352890  0.81611148    -0.26800
C389        C  0.63314278  0.82081097  0.83437085    -0.14900
C390        C  0.62125567  0.83269087  0.88031619     0.35800
C391        C  0.65191579  0.85895282  0.90634622    -0.26200
C392        C  0.69446923  0.87389160  0.88754178    -0.15500
C393        C  0.70809036  0.85956118  0.84241611     0.36900
N394        N  0.75187030  0.87253430  0.82165565    -0.89700
H395        H  0.68615225  0.82446511  0.78069582     0.18000
H396        H  0.64070138  0.87079312  0.94037977     0.18000
N397        N  0.57636334  0.82151263  0.89945093    -0.88800
H398        H  0.77138703  0.84209554  0.81448484     0.35300
H399        H  0.77201135  0.89127375  0.84483016     0.40400
H400        H  0.55841400  0.85236575  0.90848187     0.40100
H401        H  0.58220103  0.80249852  0.92974684     0.34900
C402        C  0.50933675  0.13030327  0.70530751    -0.26800
C403        C  0.51349943  0.17834683  0.70390589    -0.14900
C404        C  0.50643989  0.20165409  0.66151562     0.35800
C405        C  0.49975869  0.17609285  0.62091377    -0.26200
C406        C  0.50051339  0.12743541  0.62147311    -0.15500
C407        C  0.50284769  0.10460178  0.66508540     0.36900
N408        N  0.49995598  0.05550356  0.67021155    -0.89700
H409        H  0.51336516  0.11216437  0.73795800     0.18000
H410        H  0.49653894  0.19451238  0.58839800     0.18000
N411        N  0.50859616  0.25085202  0.65812077    -0.88800
H412        H  0.52951637  0.03921009  0.65496649     0.35300
H413        H  0.46907533  0.04456863  0.65455520     0.40400
H414        H  0.54116644  0.26098093  0.67073440     0.40100
H415        H  0.48184521  0.26551036  0.67889121     0.34900
C416        C  0.69007622  0.12417710  0.84502007    -0.26800
C417        C  0.67797971  0.11483751  0.89128821    -0.14900
C418        C  0.63714730  0.13646768  0.91065347     0.35800
C419        C  0.60879613  0.16575744  0.88360256    -0.26200
C420        C  0.61893674  0.17251252  0.83670023    -0.15500
C421        C  0.66038532  0.15233268  0.81718606     0.36900
N422        N  0.67168022  0.15992949  0.76927622    -0.89700
H423        H  0.72137749  0.10756637  0.83009638     0.18000
H424        H  0.57689645  0.18099770  0.89877941     0.18000
N425        N  0.62274797  0.12675979  0.95714853    -0.88800
H426        H  0.70321552  0.14240245  0.76032534     0.35300
H427        H  0.67754679  0.19518122  0.76521738     0.40400
H428        H  0.58918632  0.11289039  0.95616648     0.40100
H429        H  0.62025142  0.15806459  0.97529567     0.34900
C430        C  0.49441566  0.16628658  0.36660673    -0.26800
C431        C  0.46962357  0.12520702  0.36052982    -0.14900
C432        C  0.45310937  0.11514172  0.31518320     0.35800
C433        C  0.46413829  0.14388405  0.27779265    -0.26200
C434        C  0.49172510  0.18273919  0.28352271    -0.15500
C435        C  0.50632433  0.19440307  0.32867636     0.36900
N436        N  0.53484795  0.23356340  0.33665009    -0.89700
H437        H  0.50656635  0.17555842  0.40074690     0.18000
H438        H  0.45305323  0.13429356  0.24328477     0.18000
N439        N  0.42513862  0.07594518  0.30551173    -0.88800
H440        H  0.51660645  0.26297579  0.32440623     0.35300
H441        H  0.56598099  0.22923050  0.31739265     0.40400
H442        H  0.39597908  0.07664627  0.32781320     0.40100
H443        H  0.44540358  0.04567788  0.31070170     0.34900
C444        C  0.64504314  0.14960778  0.17766682    -0.26800
C445        C  0.60394751  0.16601495  0.15540428    -0.14900
C446        C  0.59616683  0.15440341  0.10865182     0.35800
C447        C  0.62916552  0.12593024  0.08538286    -0.26200
C448        C  0.66992999  0.10887485  0.10749129    -0.15500
C449        C  0.67854532  0.12136272  0.15382658     0.36900
N450        N  0.72043381  0.10425845  0.17658634    -0.89700
H451        H  0.65089203  0.15883449  0.21353092     0.18000
H452        H  0.62200675  0.11504903  0.05030394     0.18000
N453        N  0.55380032  0.17000468  0.08551454    -0.88800
H454        H  0.72132631  0.11638617  0.21070630     0.35300
H455        H  0.74929665  0.11806474  0.15942727     0.40400
H456        H  0.52537255  0.15463625  0.10195475     0.40100
H457        H  0.55376305  0.15861445  0.05110767     0.34900
C458        C  0.46573113  0.88787546  0.32506789    -0.26800
C459        C  0.50264346  0.89969695  0.35510890    -0.14900
C460        C  0.54742702  0.87787200  0.34847722     0.35800
C461        C  0.55412229  0.84534656  0.31257839    -0.26200
C462        C  0.51758107  0.83431370  0.28213430    -0.15500
C463        C  0.47268666  0.85566339  0.28871720     0.36900
N464        N  0.43497278  0.84651479  0.25726152    -0.89700
H465        H  0.43104218  0.90392238  0.32977302     0.18000
H466        H  0.58885666  0.82950503  0.30731502     0.18000
N467        N  0.58644929  0.88956420  0.37724031    -0.88800
H468        H  0.40518298  0.86726564  0.26517596     0.35300
H469        H  0.42526913  0.81237909  0.26255494     0.40400
H470        H  0.59442963  0.92374998  0.36961629     0.40100
H471        H  0.61650348  0.86943218  0.36873800     0.34900
C472        C  0.69427843  0.85965606  0.14916249    -0.26800
C473        C  0.68657087  0.86679264  0.10167180    -0.14900
C474        C  0.65187299  0.84111430  0.07909083     0.35800
C475        C  0.62312105  0.81228789  0.10472796    -0.26200
C476        C  0.62619177  0.81045666  0.15310079    -0.15500
C477        C  0.66392187  0.83220174  0.17535728     0.36900
N478        N  0.66986650  0.82812457  0.22460749    -0.89700
H479        H  0.72154770  0.87854771  0.16638483     0.18000
H480        H  0.59507628  0.79515328  0.08688440     0.18000
N481        N  0.64289593  0.84705213  0.03066433    -0.88800
H482        H  0.69880159  0.84671475  0.23556648     0.35300
H483        H  0.67766142  0.79334507  0.23182684     0.40400
H484        H  0.60791784  0.85873028  0.02665420     0.40100
H485        H  0.64680271  0.81475101  0.01454656     0.34900
C486        C  0.84064137  0.29532214  0.49720539    -0.26800
C487        C  0.80492421  0.29965666  0.53060780    -0.14900
C488        C  0.79825888  0.34221291  0.55447984     0.35800
C489        C  0.82913809  0.37844344  0.54599598    -0.26200
C490        C  0.86728872  0.37280044  0.51510443    -0.15500
C491        C  0.87190326  0.33090774  0.48941714     0.36900
N492        N  0.90797488  0.32320611  0.45507711    -0.89700
H493        H  0.84653307  0.26262345  0.47933401     0.18000
H494        H  0.82419122  0.41061951  0.56483964     0.18000
N495        N  0.76153659  0.34928243  0.58848630    -0.88800
H496        H  0.94089492  0.32307262  0.47109848     0.35300
H497        H  0.90583173  0.34988058  0.43074503     0.40400
H498        H  0.74049634  0.32042607  0.59104424     0.40100
H499        H  0.73939475  0.37622576  0.57662561     0.34900
C500        C  0.93089290  0.68907554  0.51565171    -0.26800
C501        C  0.90791273  0.65213116  0.49521755    -0.14900
C502        C  0.85990751  0.65871090  0.48297923     0.35800
C503        C  0.83540240  0.70011194  0.49467334    -0.26200
C504        C  0.85723618  0.73539556  0.51950805    -0.15500
C505        C  0.90659294  0.73025064  0.52783337     0.36900
N506        N  0.93339562  0.76555214  0.54920727    -0.89700
H507        H  0.96770670  0.68477620  0.52500302     0.18000
H508        H  0.79812916  0.70322837  0.48689488     0.18000
N509        N  0.83412582  0.62283077  0.46164811    -0.88800
H510        H  0.92347265  0.76906485  0.58394343     0.35300
H511        H  0.92733832  0.79668875  0.53159885     0.40400
H512        H  0.85151864  0.61338044  0.43094584     0.40100
H513        H  0.83420443  0.59449259  0.48395091     0.34900
C514        C  0.15327120  0.39554293  0.49526505    -0.26800
C515        C  0.11034258  0.38801708  0.47286767    -0.14900
C516        C  0.09857972  0.34217784  0.46201461     0.35800
C517        C  0.12631710  0.30494842  0.47856754    -0.26200
C518        C  0.16631358  0.31222155  0.50544879    -0.15500
C519        C  0.18166728  0.35806629  0.51148235     0.36900
N520        N  0.22388725  0.36802971  0.53637879    -0.89700
H521        H  0.16289493  0.43051329  0.50365110     0.18000
H522        H  0.11456918  0.27005709  0.47314731     0.18000
N523        N  0.05673926  0.33324667  0.43630052    -0.88800
H524        H  0.24629772  0.38482543  0.51351482     0.35300
H525        H  0.24189085  0.33771307  0.54640889     0.40400
H526        H  0.03502748  0.31297397  0.45677192     0.40100
H527        H  0.06651604  0.31402621  0.40688724     0.34900
C528        C  0.14838243  0.64060125  0.49917750    -0.26800
C529        C  0.10799906  0.63097657  0.52598320    -0.14900
C530        C  0.09479746  0.66232399  0.56152447     0.35800
C531        C  0.12144346  0.70142336  0.56965583    -0.26200
C532        C  0.16181764  0.71155406  0.54315974    -0.15500
C533        C  0.17545416  0.68024484  0.50740150     0.36900
N534        N  0.21620276  0.68863157  0.47928438    -0.89700
H535        H  0.15911129  0.61700406  0.47164060     0.18000
H536        H  0.10957326  0.72421722  0.59742710     0.18000
N537        N  0.05403401  0.65510422  0.58977188    -0.88800
H538        H  0.22018162  0.66342004  0.45343902     0.35300
H539        H  0.24579927  0.68494602  0.50052851     0.40400
H540        H  0.03114979  0.68391858  0.58646868     0.40100
H541        H  0.06478024  0.65308834  0.62431804     0.34900
C542        C  0.83394898  0.50506387  0.70120087    -0.26800
C543        C  0.79019521  0.48641859  0.69116828    -0.14900
C544        C  0.77564590  0.48469976  0.64439433     0.35800
C545        C  0.80602619  0.49943621  0.60875573    -0.26200
C546        C  0.85157517  0.51458414  0.61880205    -0.15500
C547        C  0.86450418  0.51903475  0.66585923     0.36900
N548        N  0.90945786  0.53657469  0.67806599    -0.89700
H549        H  0.84582132  0.50621699  0.73681919     0.18000
H550        H  0.79526513  0.49589543  0.57300146     0.18000
N551        N  0.73143364  0.46574816  0.63207380    -0.88800
H552        H  0.90371771  0.56548326  0.69938285     0.35300
H553        H  0.92772910  0.51125115  0.69725247     0.40400
H554        H  0.70470665  0.48499212  0.64900371     0.40100
H555        H  0.73080552  0.43181317  0.64432920     0.34900
C556        C  0.78474402  0.31869213  0.81692141    -0.26800
C557        C  0.80585078  0.35861511  0.79991339    -0.14900
C558        C  0.85456505  0.36435559  0.80752908     0.35800
C559        C  0.87988671  0.33226282  0.83436810    -0.26200
C560        C  0.85808171  0.29427151  0.85444676    -0.15500
C561        C  0.81041927  0.28606885  0.84352903     0.36900
N562        N  0.78683707  0.24595965  0.85990590    -0.89700
H563        H  0.74764247  0.31353295  0.81070146     0.18000
H564        H  0.91625056  0.33911678  0.84261608     0.18000
N565        N  0.87862501  0.40424692  0.79176731    -0.88800
H566        H  0.76050727  0.25705030  0.88320975     0.35300
H567        H  0.80991542  0.22366003  0.87778437     0.40400
H568        H  0.86120052  0.43395566  0.80471074     0.40100
H569        H  0.87815029  0.40484218  0.75558987     0.34900
C570        C  0.11887500  0.42553562  0.61670170    -0.26800
C571        C  0.10092349  0.47104427  0.61839028    -0.14900
C572        C  0.11776766  0.50161949  0.65275374     0.35800
C573        C  0.14945015  0.48476701  0.68644494    -0.26200
C574        C  0.16453573  0.43819339  0.68695331    -0.15500
C575        C  0.14999075  0.40876760  0.65084940     0.36900
N576        N  0.16520319  0.36111001  0.64993899    -0.89700
H577        H  0.10704444  0.40227071  0.58998940     0.18000
H578        H  0.15979705  0.50761745  0.71414080     0.18000
N579        N  0.10276902  0.54953646  0.65540756    -0.88800
H580        H  0.18248010  0.35451720  0.61850001     0.35300
H581        H  0.13523352  0.34100771  0.65097233     0.40400
H582        H  0.07952845  0.55877684  0.62891980     0.40100
H583        H  0.13257222  0.56934838  0.65053803     0.34900
C584        C  0.06607629  0.30742358  0.83013104    -0.26800
C585        C  0.08399090  0.27471100  0.86167709    -0.14900
C586        C  0.13299119  0.26455940  0.86224871     0.35800
C587        C  0.16352287  0.29169462  0.83599105    -0.26200
C588        C  0.14539181  0.32737226  0.80779820    -0.15500
C589        C  0.09610056  0.33350612  0.80313326     0.36900
N590        N  0.07619345  0.36906203  0.77404773    -0.89700
H591        H  0.02862937  0.31596079  0.82931966     0.18000
H592        H  0.20131415  0.28619447  0.83911115     0.18000
N593        N  0.15183572  0.22906146  0.89194684    -0.88800
H594        H  0.05579095  0.39178061  0.79469169     0.35300
H595        H  0.05389749  0.35359490  0.75025393     0.40400
H596        H  0.17549097  0.24405136  0.91474516     0.40100
H597        H  0.17084137  0.20519365  0.87135616     0.34900
C598        C  0.79208753  0.50367724  0.30979030    -0.26800
C599        C  0.78308923  0.45759644  0.29829432    -0.14900
C600        C  0.80097067  0.42182386  0.32764962     0.35800
C601        C  0.83091731  0.43271608  0.36440661    -0.26200
C602        C  0.84142002  0.47854947  0.37475391    -0.15500
C603        C  0.82074731  0.51437483  0.34787924     0.36900
N604        N  0.83076221  0.56154998  0.35761791    -0.89700
H605        H  0.77899881  0.53139724  0.28769498     0.18000
H606        H  0.84533423  0.40500694  0.38577757     0.18000
N607        N  0.78953124  0.37410554  0.32132174    -0.88800
H608        H  0.79874171  0.57949971  0.36352389     0.35300
H609        H  0.84645836  0.57558521  0.32820992     0.40400
H610        H  0.76300349  0.37060606  0.29679649     0.40100
H611        H  0.77471439  0.36271940  0.35234726     0.34900
C612        C  0.78036166  0.32963374  0.14097345    -0.26800
C613        C  0.79986924  0.37186841  0.15344945    -0.14900
C614        C  0.84498449  0.38304442  0.13672898     0.35800
C615        C  0.86945026  0.35150271  0.10825909    -0.26200
C616        C  0.85008600  0.30934270  0.09536867    -0.15500
C617        C  0.80508484  0.29791574  0.11228686     0.36900
N618        N  0.78333644  0.25520787  0.10071429    -0.89700
H619        H  0.74563518  0.32127105  0.15364165     0.18000
H620        H  0.90364924  0.36066849  0.09476017     0.18000
N621        N  0.86665925  0.42629067  0.14662771    -0.88800
H622        H  0.77861174  0.23695295  0.13151908     0.35300
H623        H  0.80528888  0.23434884  0.07976357     0.40400
H624        H  0.84521886  0.44815191  0.16697837     0.40100
H625        H  0.87121125  0.44344395  0.11515232     0.34900
C626        C  0.09881726  0.52512468  0.35473752    -0.26800
C627        C  0.04944413  0.52184252  0.35211005    -0.14900
C628        C  0.02904479  0.51308698  0.30895732     0.35800
C629        C  0.05792259  0.50508589  0.26996641    -0.26200
C630        C  0.10750129  0.50325818  0.27331332    -0.15500
C631        C  0.12818086  0.51554328  0.31582432     0.36900
N632        N  0.17857892  0.51425680  0.32052944    -0.89700
H633        H  0.11475344  0.53093328  0.38819430     0.18000
H634        H  0.04128532  0.49696160  0.23741062     0.18000
N635        N  0.97896838  0.50967304  0.30518881    -0.88800
H636        H  0.18801265  0.52180641  0.35461952     0.35300
H637        H  0.19162247  0.54073395  0.30001195     0.40400
H638        H  0.97182158  0.47666972  0.29274822     0.40100
H639        H  0.96705571  0.53377270  0.28063746     0.34900
C640        C  0.13648086  0.34419248  0.13917177    -0.26800
C641        C  0.11090821  0.38435619  0.15294556    -0.14900
C642        C  0.06253206  0.38883094  0.14157042     0.35800
C643        C  0.04164326  0.35455835  0.11549498    -0.26200
C644        C  0.06726637  0.31494512  0.10065372    -0.15500
C645        C  0.11508809  0.30903851  0.11386643     0.36900
N646        N  0.14284036  0.26824297  0.10212734    -0.89700
H647        H  0.17337725  0.34002283  0.14825084     0.18000
H648        H  0.00520254  0.35985584  0.10511145     0.18000
N649        N  0.03402609  0.42873995  0.15388665    -0.88800
H650        H  0.16926250  0.27793204  0.07906825     0.35300
H651        H  0.12272940  0.24379953  0.08526515     0.40400
H652        H  0.05042941  0.45834005  0.14198785     0.40100
H653        H  0.03065990  0.43008452  0.18989032     0.34900
C654        C  0.44244105  0.34223542  0.10496470    -0.26800
C655        C  0.47761606  0.37352919  0.09236153    -0.14900
C656        C  0.52301952  0.36736518  0.11119069     0.35800
C657        C  0.53226455  0.33111146  0.14244286    -0.26200
C658        C  0.49752585  0.29996379  0.15522879    -0.15500
C659        C  0.45202639  0.30540556  0.13615374     0.36900
N660        N  0.41665991  0.27244944  0.14667424    -0.89700
H661        H  0.40736478  0.34663703  0.09064728     0.18000
H662        H  0.56765138  0.32603417  0.15583147     0.18000
N663        N  0.56011735  0.39725901  0.09757427    -0.88800
H664        H  0.38550531  0.28061289  0.12888665     0.35300
H665        H  0.40870352  0.27542123  0.18197322     0.40400
H666        H  0.56667044  0.39171924  0.06227973     0.40100
H667        H  0.59140257  0.38849387  0.11485483     0.34900
C668        C  0.45393408  0.69576059  0.07949825    -0.26800
C669        C  0.44985105  0.65109246  0.09743088    -0.14900
C670        C  0.45574087  0.64418136  0.14559116     0.35800
C671        C  0.47133757  0.68083625  0.17356815    -0.26200
C672        C  0.48107284  0.72394154  0.15409435    -0.15500
C673        C  0.46923138  0.73206943  0.10717637     0.36900
N674        N  0.47413229  0.77650656  0.08619778    -0.89700
H675        H  0.44941209  0.70150392  0.04266731     0.18000
H676        H  0.48005139  0.67447237  0.20954207     0.18000
N677        N  0.45078646  0.59883911  0.16486720    -0.88800
H678        H  0.50951724  0.78520786  0.08642601     0.35300
H679        H  0.45481198  0.80090144  0.10589174     0.40400
H680        H  0.41544469  0.59030023  0.16147155     0.40100
H681        H  0.45788327  0.59910546  0.20037240     0.34900
C682        C  0.51909446  0.66768805  0.79621997    -0.26800
C683        C  0.50698614  0.71275204  0.81089052    -0.14900
C684        C  0.47928767  0.71891113  0.85128867     0.35800
C685        C  0.46857405  0.68026821  0.87869634    -0.26200
C686        C  0.48485517  0.63531015  0.86663899    -0.15500
C687        C  0.50810011  0.62905983  0.82326106     0.36900
N688        N  0.52401090  0.58442357  0.80710361    -0.89700
H689        H  0.54059231  0.66262748  0.76537269     0.18000
H690        H  0.44956829  0.68564160  0.91100964     0.18000
N691        N  0.46339986  0.76460084  0.86511596    -0.88800
H692        H  0.49482131  0.56351131  0.80398756     0.35300
H693        H  0.54721866  0.56994714  0.83138322     0.40400
H694        H  0.49290373  0.78328871  0.87405931     0.40100
H695        H  0.44242520  0.76316358  0.89492575     0.34900
C696        C  0.62906985  0.52392770  0.86663197    -0.26800
C697        C  0.60230572  0.48973672  0.88847955    -0.14900
C698        C  0.60962367  0.44327361  0.87421567     0.35800
C699        C  0.64364801  0.43216339  0.83988306    -0.26200
C700        C  0.67101002  0.46605519  0.81874238    -0.15500
C701        C  0.66269838  0.51276197  0.83161719     0.36900
N702        N  0.68951556  0.54852672  0.81059659    -0.89700
H703        H  0.62341547  0.55981295  0.87652681     0.18000
H704        H  0.64966721  0.39624467  0.83023833     0.18000
N705        N  0.58311104  0.40717152  0.89503304    -0.88800
H706        H  0.68071477  0.58063998  0.82548636     0.35300
H707        H  0.67941379  0.55079834  0.77588069     0.40400
H708        H  0.59318932  0.40467834  0.92974491     0.40100
H709        H  0.59162293  0.37518023  0.87975129     0.34900
C710        C  0.49521294  0.29594759  0.87593105    -0.26800
C711        C  0.50162192  0.29770975  0.82774760    -0.14900
C712        C  0.49143277  0.33945684  0.80429987     0.35800
C713        C  0.47644294  0.37859863  0.82948704    -0.26200
C714        C  0.47103441  0.37739138  0.87802273    -0.15500
C715        C  0.48047731  0.33492469  0.90131788     0.36900
N716        N  0.47726626  0.33013662  0.95062857    -0.89700
H717        H  0.50319542  0.26408220  0.89440230     0.18000
H718        H  0.46987382  0.41052110  0.81073440     0.18000
N719        N  0.49771860  0.34374671  0.75529813    -0.88800
H720        H  0.44274557  0.33827298  0.96128091     0.35300
H721        H  0.50069778  0.35247203  0.96628585     0.40400
H722        H  0.47487759  0.32135982  0.73898599     0.40100
H723        H  0.53246991  0.33392623  0.74680806     0.34900
C724        C  0.29507841  0.47588390  0.81575158    -0.26800
C725        C  0.25744772  0.45040161  0.83320073    -0.14900
C726        C  0.25177708  0.44719700  0.88189910     0.35800
C727        C  0.28515495  0.46663429  0.91138561    -0.26200
C728        C  0.32463260  0.48929264  0.89400154    -0.15500
C729        C  0.32890891  0.49470414  0.84560087     0.36900
N730        N  0.36920197  0.51638370  0.82637679    -0.89700
H731        H  0.29993918  0.47887643  0.77864638     0.18000
H732        H  0.28149309  0.46200310  0.94847119     0.18000
N733        N  0.21260781  0.42345702  0.90149037    -0.88800
H734        H  0.35725829  0.54414881  0.80603615     0.35300
H735        H  0.38689112  0.49249576  0.80472926     0.40400
H736        H  0.18184321  0.44217838  0.89273592     0.40100
H737        H  0.21422206  0.42323948  0.93767059     0.34900
C738        C  0.29292215  0.49608978  0.09454628    -0.26800
C739        C  0.33496285  0.49295711  0.12010700    -0.14900
C740        C  0.33182099  0.48944611  0.16902597     0.35800
C741        C  0.28698429  0.48577144  0.19045231    -0.26200
C742        C  0.24559572  0.48523454  0.16392544    -0.15500
C743        C  0.24868736  0.49224434  0.11570322     0.36900
N744        N  0.20662170  0.49416533  0.08807138    -0.89700
H745        H  0.29435446  0.50053158  0.05731898     0.18000
H746        H  0.28457827  0.48055544  0.22752645     0.18000
N747        N  0.37380817  0.48813319  0.19665879    -0.88800
H748        H  0.21482202  0.49884693  0.05307031     0.35300
H749        H  0.18662930  0.52334846  0.09851132     0.40400
H750        H  0.39241947  0.45730811  0.18891000     0.40100
H751        H  0.36520778  0.48675829  0.23187858     0.34900
C752        C  0.58705418  0.49996838  0.15413632    -0.26800
C753        C  0.59568958  0.51779827  0.10954392    -0.14900
C754        C  0.64309013  0.52123071  0.09470081     0.35800
C755        C  0.67996223  0.50516072  0.12319763    -0.26200
C756        C  0.67119374  0.48573696  0.16672629    -0.15500
C757        C  0.62416594  0.48383654  0.18258887     0.36900
N758        N  0.61297502  0.46352289  0.22629483    -0.89700
H759        H  0.55114865  0.49675094  0.16635167     0.18000
H760        H  0.71589950  0.50645173  0.11043047     0.18000
N761        N  0.65427922  0.54030292  0.05036703    -0.88800
H762        H  0.62985051  0.48191453  0.25226534     0.35300
H763        H  0.62632050  0.42943523  0.22646966     0.40400
H764        H  0.67340819  0.51520206  0.03136542     0.40100
H765        H  0.67594529  0.56839174  0.05558538     0.34900
loop_ 
_geom_bond_atom_site_label_1 
_geom_bond_atom_site_label_2 
_geom_bond_distance 
_geom_bond_site_symmetry_2 
_ccdc_geom_bond_type 
O1            C9   1.270       .  A
O1          Co21   1.989       .  S
O2           C10   1.270       .  A
O2          Co22   2.027       .  S
O3           C11   1.273       .  A
O3          Co23   1.989       .  S
O4           C12   1.300       .  A
O4          Co24   2.069   1_554  S
O5           C11   1.281       .  A
O5          Co22   2.033       .  S
O6           C12   1.278       .  A
O6          Co21   1.918       .  S
O7           C10   1.248       .  A
O7          Co24   1.937       .  S
O8            C9   1.269       .  A
O8          Co23   1.994   1_554  S
C9          C669   1.482       .  S
C10         C728   1.493       .  S
C11         C686   1.502       .  S
C12         C739   1.497       .  S
O13          C26   1.266       .  A
O13         Co21   2.026       .  S
O14          C27   1.261       .  A
O14         Co22   1.991       .  S
O15          C28   1.271       .  A
O15         Co23   1.989   1_554  S
O16          C29   1.301       .  A
O16         Co24   2.081       .  S
O17          C29   1.276       .  A
O17         Co22   1.886       .  S
O18          C28   1.274       .  A
O18         Co21   2.006       .  S
O19          C26   1.243       .  A
O19         Co24   1.964   1_554  S
O20          C27   1.263       .  A
O20         Co23   2.014       .  S
Co21         O25   1.970   1_554  S
Co22         O25   1.948       .  S
Co23         O25   2.039       .  S
Co24         O25   2.106       .  S
C26         C655   1.494       .  S
C27         C697   1.505       .  S
C28         C753   1.498       .  S
C29         C714   1.488       .  S
C30         C742   1.488       .  S
C30          N31   1.361       .  A
C30          N35   1.371       .  A
N31          C32   1.354       .  A
C32         C641   1.482       .  S
C32          N33   1.351       .  A
N33          C34   1.357       .  A
C34         C630   1.495       .  S
C34          N35   1.371       .  A
C36         C599   1.489       .  S
C36          N37   1.370       .  A
C36          N41   1.357       .  A
N37          C38   1.370       .  A
C38         C756   1.483       .  S
C38          N39   1.356       .  A
N39          C40   1.350       .  A
C40         C613   1.465       .  S
C40          N41   1.352       .  A
C42         C725   1.499       .  S
C42          N43   1.364       .  A
C42          N47   1.370       .  A
N43          C44   1.356       .  A
C44         C588   1.474       .  S
C44          N45   1.347       .  A
N45          C46   1.351       .  A
C46         C574   1.485       .  S
C46          N47   1.369       .  A
C48         C543   1.487       .  S
C48          N49   1.357       .  A
C48          N53   1.370       .  A
N49          C50   1.353       .  A
C50         C557   1.482       .  S
C50          N51   1.355       .  A
N51          C52   1.361       .  A
C52         C700   1.500       .  S
C52          N53   1.373       .  A
N54          C59   1.350   1_655  A
N54          C58   1.350       .  A
N54          H86   1.041       .  S
N55          C62   1.353       .  A
N55          C63   1.353   1_556  A
N56          C61   1.348       .  A
N56          C60   1.346       .  A
N56          H87   1.041       .  S
N57          C64   1.351       .  A
N57          C65   1.354   1_556  A
C58          C66   1.385       .  A
C58          C74   1.413       .  A
C59          C75   1.417       .  A
C59          C67   1.389   1_455  A
C60          C68   1.387       .  A
C60          C77   1.408       .  A
C61          C76   1.407   1_655  A
C61          C69   1.385       .  A
C62          C74   1.417       .  A
C62          C70   1.388       .  A
C63          C77   1.413       .  A
C63          C71   1.385   1_554  A
C64          C72   1.389       .  A
C64          C75   1.417       .  A
C65          C73   1.384       .  A
C65          C76   1.411       .  A
C66          C67   1.382       .  A
C66          H78   1.082       .  S
C67          H79   1.083   1_655  S
C68          C69   1.379       .  A
C68          H80   1.082       .  S
C69          H81   1.082   1_655  S
C70          C71   1.370       .  A
C70          H82   1.081       .  S
C71          H83   1.082   1_556  S
C72          C73   1.367   1_556  A
C72          H84   1.081       .  S
C73          H85   1.081       .  S
C74         C560   1.494       .  S
C75         C585   1.492       .  S
C76         C644   1.492       .  S
C77         C616   1.485       .  S
O88          C96   1.262       .  A
O88        Co108   1.970       .  S
O89          C97   1.265       .  A
O89        Co109   1.983       .  S
O90          C98   1.308       .  A
O90        Co110   2.125       .  S
O91          C99   1.310       .  A
O91        Co111   2.128   1_455  S
O92          C98   1.272       .  A
O92        Co109   1.885       .  S
O93          C99   1.274       .  A
O93        Co108   1.888       .  S
O94          C97   1.266       .  A
O94        Co111   2.000       .  S
O95          C96   1.267       .  A
O95        Co110   2.008   1_455  S
C96         C627   1.483       .  S
C97         C501   1.488       .  S
C98         C602   1.486       .  S
C99         C529   1.504       .  S
O100        C113   1.256       .  A
O100       Co108   2.020       .  S
O101        C114   1.261       .  A
O101       Co109   2.041       .  S
O102        C115   1.258       .  A
O102       Co110   1.958   1_455  S
O103        C116   1.264       .  A
O103       Co111   1.975       .  S
O104        C116   1.275       .  A
O104       Co109   2.036       .  S
O105        C115   1.274       .  A
O105       Co108   2.036       .  S
O106        C113   1.249       .  A
O106       Co111   1.959   1_455  S
O107        C114   1.245       .  A
O107       Co110   1.944       .  S
Co108       O112   2.011   1_455  S
Co109       O112   2.005       .  S
Co110       O112   2.106       .  S
Co111       O112   2.107       .  S
C113        C571   1.477       .  S
C114        C490   1.489       .  S
C115        C515   1.488       .  S
C116        C546   1.499       .  S
C117        C672   1.485       .  S
C117        N118   1.358       .  A
C117        N122   1.367       .  A
N118        C119   1.356       .  A
C119        C476   1.482       .  S
C119        N120   1.352       .  A
N120        C121   1.356       .  A
C121        C462   1.489       .  S
C121        N122   1.369       .  A
C123        C658   1.486       .  S
C123        N124   1.371       .  A
C123        N128   1.353       .  A
N124        C125   1.373       .  A
C125        C434   1.488       .  S
C125        N126   1.360       .  A
N126        C127   1.355       .  A
C127        C445   1.472       .  S
C127        N128   1.350       .  A
C129        C403   1.476       .  S
C129        N130   1.360       .  A
C129        N134   1.363       .  A
N130        C131   1.353       .  A
C131        C420   1.471       .  S
C131        N132   1.351       .  A
N132        C133   1.354       .  A
C133        C711   1.476       .  S
C133        N134   1.363       .  A
C135        C378   1.491       .  S
C135        N136   1.358       .  A
C135        N140   1.371       .  A
N136        C137   1.352       .  A
C137        C389   1.473       .  S
C137        N138   1.353       .  A
N138        C139   1.357       .  A
C139        C683   1.483       .  S
C139        N140   1.369       .  A
N141        C146   1.349   1_556  A
N141        C145   1.350       .  A
N141        H173   1.033       .  S
N142        C149   1.353   1_565  A
N142        C150   1.352       .  A
N143        C148   1.349   1_556  A
N143        C147   1.348       .  A
N143        H174   1.034       .  S
N144        C151   1.352   1_565  A
N144        C152   1.354       .  A
C145        C153   1.387       .  A
C145        C161   1.410       .  A
C146        C162   1.411       .  A
C146        C154   1.387       .  A
C147        C155   1.386       .  A
C147        C164   1.406       .  A
C148        C163   1.408       .  A
C148        C156   1.386       .  A
C149        C161   1.414       .  A
C149        C157   1.387       .  A
C150        C164   1.413       .  A
C150        C158   1.386       .  A
C151        C159   1.386       .  A
C151        C162   1.413       .  A
C152        C160   1.387       .  A
C152        C163   1.417       .  A
C153        C154   1.380   1_556  A
C153        H165   1.083       .  S
C154        H166   1.083       .  S
C155        C156   1.380   1_556  A
C155        H167   1.082       .  S
C156        H168   1.082       .  S
C157        C158   1.370   1_545  A
C157        H169   1.081       .  S
C158        H170   1.082       .  S
C159        C160   1.371   1_545  A
C159        H171   1.082       .  S
C160        H172   1.081       .  S
C161        C417   1.491       .  S
C162        C448   1.487       .  S
C163        C473   1.494       .  S
C164        C392   1.484       .  S
C175        C532   1.510       .  S
C175        N176   1.357       .  A
C175        N180   1.374       .  A
N176        C177   1.348       .  A
C177        C361   1.464       .  S
C177        N178   1.350       .  A
N178        C179   1.357       .  A
C179        C347   1.482       .  S
C179        N180   1.374       .  A
C181        C322   1.496       .  S
C181        N182   1.361       .  A
C181        N186   1.369       .  A
N182        C183   1.354       .  A
C183        C333   1.463       .  S
C183        N184   1.347       .  A
N184        C185   1.353       .  A
C185        C487   1.473       .  S
C185        N186   1.368       .  A
C187        C518   1.482       .  S
C187        N188   1.366       .  A
C187        N192   1.360       .  A
N188        C189   1.368       .  A
C189        C294   1.490       .  S
C189        N190   1.359       .  A
N190        C191   1.356       .  A
C191        C308   1.473       .  S
C191        N192   1.355       .  A
C193        C263   1.471       .  S
C193        N194   1.355       .  A
C193        N198   1.366       .  A
N194        C195   1.350       .  A
C195        C277   1.466       .  S
C195        N196   1.354       .  A
N196        C197   1.359       .  A
C197        C504   1.501       .  S
C197        N198   1.368       .  A
N199        C204   1.350   1_655  A
N199        C203   1.354       .  A
N199        H231   1.041       .  S
N200        C207   1.352       .  A
N200        C208   1.346   1_545  A
N201        C206   1.356   1_655  A
N201        C205   1.356       .  A
N201        H232   1.041       .  S
N202        C209   1.351       .  A
N202        C210   1.345   1_545  A
C203        C211   1.384       .  A
C203        C219   1.408       .  A
C204        C220   1.407       .  A
C204        C212   1.387       .  A
C205        C213   1.383       .  A
C205        C222   1.411       .  A
C206        C221   1.419       .  A
C206        C214   1.388       .  A
C207        C219   1.413       .  A
C207        C215   1.388       .  A
C208        C222   1.408       .  A
C208        C216   1.386   1_565  A
C209        C217   1.384       .  A
C209        C220   1.410       .  A
C210        C218   1.389   1_565  A
C210        C221   1.411       .  A
C211        C212   1.371   1_655  A
C211        H223   1.083       .  S
C212        H224   1.083       .  S
C213        C214   1.373   1_655  A
C213        H225   1.082       .  S
C214        H226   1.083       .  S
C215        C216   1.374       .  A
C215        H227   1.083       .  S
C216        H228   1.082   1_545  S
C217        C218   1.374       .  A
C217        H229   1.082       .  S
C218        H230   1.082   1_545  S
C219        C336   1.478       .  S
C220        C305   1.486       .  S
C221        C364   1.485       .  S
C222        C280   1.485       .  S
O233        C241   1.267       .  A
O233       Co253   1.986       .  S
O234        C242   1.270       .  A
O234       Co254   2.042       .  S
O235        C243   1.274       .  A
O235       Co255   1.992       .  S
O236        C244   1.298       .  A
O236       Co256   2.074   1_565  S
O237        C243   1.283       .  A
O237       Co254   2.034       .  S
O238        C244   1.276       .  A
O238       Co253   1.900       .  S
O239        C242   1.242       .  A
O239       Co256   1.925       .  S
O240        C241   1.268       .  A
O240       Co255   2.001   1_565  S
C241        C459   1.499       .  S
C242        C319   1.492       .  S
C243        C431   1.509       .  S
C244        C266   1.479       .  S
O245        C258   1.269       .  A
O245       Co253   2.037       .  S
O246        C259   1.263       .  A
O246       Co254   1.988       .  S
O247        C260   1.274       .  A
O247       Co255   1.996   1_565  S
O248        C261   1.296       .  A
O248       Co256   2.064       .  S
O249        C261   1.280       .  A
O249       Co254   1.901       .  S
O250        C260   1.274       .  A
O250       Co253   2.007       .  S
O251        C258   1.241       .  A
O251       Co256   1.940   1_565  S
O252        C259   1.264       .  A
O252       Co255   2.002       .  S
Co253       O257   1.968   1_565  S
Co254       O257   1.964       .  S
Co255       O257   2.040       .  S
Co256       O257   2.089       .  S
C258        C375   1.489       .  S
C259        C291   1.495       .  S
C260        C350   1.498       .  S
C261        C406   1.488       .  S
C262        C263   1.401       .  A
C262        C267   1.397       .  A
C262        H269   1.084       .  S
C263        C264   1.415       .  A
C264        C265   1.403       .  A
C264        N271   1.438       .  S
C265        C266   1.404       .  A
C265        H270   1.084       .  S
C266        C267   1.417       .  A
C267        N268   1.433       .  S
N268        H272   1.043       .  S
N268        H273   1.043       .  S
N271        H274   1.044       .  S
N271        H275   1.045       .  S
C276        C277   1.396       .  A
C276        C281   1.392       .  A
C276        H283   1.084       .  S
C277        C278   1.411       .  A
C278        C279   1.411       .  A
C278        N285   1.437       .  S
C279        C280   1.403       .  A
C279        H284   1.083       .  S
C280        C281   1.416       .  A
C281        N282   1.434       .  S
N282        H286   1.044       .  S
N282        H287   1.045       .  S
N285        H288   1.046       .  S
N285        H289   1.045       .  S
C290        C291   1.404       .  A
C290        C295   1.411       .  A
C290        H297   1.083       .  S
C291        C292   1.418       .  A
C292        C293   1.407       .  A
C292        N299   1.433       .  S
C293        C294   1.402       .  A
C293        H298   1.084       .  S
C294        C295   1.416       .  A
C295        N296   1.437       .  S
N296        H300   1.046       .  S
N296        H301   1.046       .  S
N299        H302   1.046       .  S
N299        H303   1.046       .  S
C304        C305   1.405       .  A
C304        C309   1.409       .  A
C304        H311   1.084       .  S
C305        C306   1.419       .  A
C306        C307   1.398       .  A
C306        N313   1.434       .  S
C307        C308   1.400       .  A
C307        H312   1.084       .  S
C308        C309   1.408       .  A
C309        N310   1.437       .  S
N310        H314   1.046       .  S
N310        H315   1.044       .  S
N313        H316   1.042       .  S
N313        H317   1.044       .  S
C318        C319   1.407       .  A
C318        C323   1.401       .  A
C318        H325   1.084       .  S
C319        C320   1.414       .  A
C320        C321   1.418       .  A
C320        N327   1.435       .  S
C321        C322   1.408       .  A
C321        H326   1.083       .  S
C322        C323   1.413       .  A
C323        N324   1.434       .  S
N324        H328   1.046       .  S
N324        H329   1.046       .  S
N327        H330   1.044       .  S
N327        H331   1.045       .  S
C332        C333   1.402       .  A
C332        C337   1.404       .  A
C332        H339   1.084       .  S
C333        C334   1.404       .  A
C334        C335   1.397       .  A
C334        N341   1.433       .  S
C335        C336   1.404       .  A
C335        H340   1.085       .  S
C336        C337   1.405       .  A
C337        N338   1.431       .  S
N338        H342   1.045       .  S
N338        H343   1.046       .  S
N341        H344   1.046       .  S
N341        H345   1.046       .  S
C346        C347   1.402       .  A
C346        C351   1.414       .  A
C346        H353   1.084       .  S
C347        C348   1.410       .  A
C348        C349   1.408       .  A
C348        N355   1.438       .  S
C349        C350   1.406       .  A
C349        H354   1.083       .  S
C350        C351   1.419       .  A
C351        N352   1.437       .  S
N352        H356   1.046       .  S
N352        H357   1.044       .  S
N355        H358   1.046       .  S
N355        H359   1.046       .  S
C360        C361   1.398       .  A
C360        C365   1.393       .  A
C360        H367   1.085       .  S
C361        C362   1.409       .  A
C362        C363   1.409       .  A
C362        N369   1.437       .  S
C363        C364   1.404       .  A
C363        H368   1.083       .  S
C364        C365   1.409       .  A
C365        N366   1.433       .  S
N366        H370   1.046       .  S
N366        H371   1.046       .  S
N369        H372   1.046       .  S
N369        H373   1.046       .  S
C374        C375   1.410       .  A
C374        C379   1.405       .  A
C374        H381   1.084       .  S
C375        C376   1.405       .  A
C376        C377   1.417       .  A
C376        N383   1.435       .  S
C377        C378   1.409       .  A
C377        H382   1.083       .  S
C378        C379   1.414       .  A
C379        N380   1.440       .  S
N380        H384   1.046       .  S
N380        H385   1.046       .  S
N383        H386   1.046       .  S
N383        H387   1.045       .  S
C388        C389   1.406       .  A
C388        C393   1.405       .  A
C388        H395   1.084       .  S
C389        C390   1.406       .  A
C390        C391   1.395       .  A
C390        N397   1.433       .  S
C391        C392   1.403       .  A
C391        H396   1.083       .  S
C392        C393   1.414       .  A
C393        N394   1.438       .  S
N394        H398   1.045       .  S
N394        H399   1.044       .  S
N397        H400   1.046       .  S
N397        H401   1.046       .  S
C402        C403   1.400       .  A
C402        C407   1.394       .  A
C402        H409   1.085       .  S
C403        C404   1.411       .  A
C404        C405   1.401       .  A
C404        N411   1.431       .  S
C405        C406   1.408       .  A
C405        H410   1.083       .  S
C406        C407   1.424       .  A
C407        N408   1.434       .  S
N408        H412   1.044       .  S
N408        H413   1.046       .  S
N411        H414   1.045       .  S
N411        H415   1.044       .  S
C416        C417   1.406       .  A
C416        C421   1.409       .  A
C416        H423   1.084       .  S
C417        C418   1.412       .  A
C418        C419   1.394       .  A
C418        N425   1.432       .  S
C419        C420   1.398       .  A
C419        H424   1.084       .  S
C420        C421   1.411       .  A
C421        N422   1.437       .  S
N422        H426   1.046       .  S
N422        H427   1.046       .  S
N425        H428   1.046       .  S
N425        H429   1.046       .  S
C430        C431   1.411       .  A
C430        C435   1.412       .  A
C430        H437   1.082       .  S
C431        C432   1.425       .  A
C432        C433   1.404       .  A
C432        N439   1.432       .  S
C433        C434   1.400       .  A
C433        H438   1.084       .  S
C434        C435   1.413       .  A
C435        N436   1.432       .  S
N436        H440   1.046       .  S
N436        H441   1.046       .  S
N439        H442   1.046       .  S
N439        H443   1.044       .  S
C444        C445   1.405       .  A
C444        C449   1.410       .  A
C444        H451   1.084       .  S
C445        C446   1.410       .  A
C446        C447   1.396       .  A
C446        N453   1.439       .  S
C447        C448   1.401       .  A
C447        H452   1.082       .  S
C448        C449   1.409       .  A
C449        N450   1.436       .  S
N450        H454   1.046       .  S
N450        H455   1.046       .  S
N453        H456   1.046       .  S
N453        H457   1.046       .  S
C458        C459   1.413       .  A
C458        C463   1.411       .  A
C458        H465   1.083       .  S
C459        C460   1.413       .  A
C460        C461   1.407       .  A
C460        N467   1.436       .  S
C461        C462   1.407       .  A
C461        H466   1.084       .  S
C462        C463   1.410       .  A
C463        N464   1.438       .  S
N464        H468   1.046       .  S
N464        H469   1.045       .  S
N467        H470   1.045       .  S
N467        H471   1.046       .  S
C472        C473   1.404       .  A
C472        C477   1.409       .  A
C472        H479   1.084       .  S
C473        C474   1.413       .  A
C474        C475   1.396       .  A
C474        N481   1.432       .  S
C475        C476   1.401       .  A
C475        H480   1.083       .  S
C476        C477   1.415       .  A
C477        N478   1.437       .  S
N478        H482   1.046       .  S
N478        H483   1.045       .  S
N481        H484   1.046       .  S
N481        H485   1.046       .  S
C486        C487   1.398       .  A
C486        C491   1.398       .  A
C486        H493   1.085       .  S
C487        C488   1.417       .  A
C488        C489   1.408       .  A
C488        N495   1.438       .  S
C489        C490   1.404       .  A
C489        H494   1.082       .  S
C490        C491   1.422       .  A
C491        N492   1.433       .  S
N492        H496   1.044       .  S
N492        H497   1.045       .  S
N495        H498   1.044       .  S
N495        H499   1.045       .  S
C500        C501   1.400       .  A
C500        C505   1.401       .  A
C500        H507   1.084       .  S
C501        C502   1.416       .  A
C502        C503   1.406       .  A
C502        N509   1.429       .  S
C503        C504   1.408       .  A
C503        H508   1.084       .  S
C504        C505   1.426       .  A
C505        N506   1.433       .  S
N506        H510   1.044       .  S
N506        H511   1.046       .  S
N509        H512   1.044       .  S
N509        H513   1.044       .  S
C514        C515   1.405       .  A
C514        C519   1.413       .  A
C514        H521   1.084       .  S
C515        C516   1.413       .  A
C516        C517   1.401       .  A
C516        N523   1.434       .  S
C517        C518   1.399       .  A
C517        H522   1.084       .  S
C518        C519   1.420       .  A
C519        N520   1.437       .  S
N520        H524   1.045       .  S
N520        H525   1.044       .  S
N523        H526   1.046       .  S
N523        H527   1.046       .  S
C528        C529   1.415       .  A
C528        C533   1.421       .  A
C528        H535   1.083       .  S
C529        C530   1.409       .  A
C530        C531   1.400       .  A
C530        N537   1.433       .  S
C531        C532   1.413       .  A
C531        H536   1.083       .  S
C532        C533   1.416       .  A
C533        N534   1.437       .  S
N534        H538   1.046       .  S
N534        H539   1.045       .  S
N537        H540   1.046       .  S
N537        H541   1.046       .  S
C542        C543   1.401       .  A
C542        C547   1.404       .  A
C542        H549   1.084       .  S
C543        C544   1.415       .  A
C544        C545   1.414       .  A
C544        N551   1.431       .  S
C545        C546   1.409       .  A
C545        H550   1.083       .  S
C546        C547   1.416       .  A
C547        N548   1.433       .  S
N548        H552   1.046       .  S
N548        H553   1.046       .  S
N551        H554   1.045       .  S
N551        H555   1.045       .  S
C556        C557   1.406       .  A
C556        C561   1.407       .  A
C556        H563   1.084       .  S
C557        C558   1.416       .  A
C558        C559   1.395       .  A
C558        N565   1.433       .  S
C559        C560   1.403       .  A
C559        H564   1.085       .  S
C560        C561   1.418       .  A
C561        N562   1.438       .  S
N562        H566   1.045       .  S
N562        H567   1.044       .  S
N565        H568   1.046       .  S
N565        H569   1.045       .  S
C570        C571   1.398       .  A
C570        C575   1.404       .  A
C570        H577   1.084       .  S
C571        C572   1.422       .  A
C572        C573   1.406       .  A
C572        N579   1.440       .  S
C573        C574   1.401       .  A
C573        H578   1.084       .  S
C574        C575   1.416       .  A
C575        N576   1.432       .  S
N576        H580   1.044       .  S
N576        H581   1.046       .  S
N579        H582   1.042       .  S
N579        H583   1.046       .  S
C584        C585   1.401       .  A
C584        C589   1.393       .  A
C584        H591   1.084       .  S
C585        C586   1.412       .  A
C586        C587   1.407       .  A
C586        N593   1.432       .  S
C587        C588   1.403       .  A
C587        H592   1.084       .  S
C588        C589   1.412       .  A
C589        N590   1.434       .  S
N590        H594   1.046       .  S
N590        H595   1.046       .  S
N593        H596   1.046       .  S
N593        H597   1.045       .  S
C598        C599   1.405       .  A
C598        C603   1.411       .  A
C598        H605   1.084       .  S
C599        C600   1.422       .  A
C600        C601   1.404       .  A
C600        N607   1.440       .  S
C601        C602   1.400       .  A
C601        H606   1.084       .  S
C602        C603   1.411       .  A
C603        N604   1.431       .  S
N604        H608   1.046       .  S
N604        H609   1.046       .  S
N607        H610   1.043       .  S
N607        H611   1.046       .  S
C612        C613   1.404       .  A
C612        C617   1.404       .  A
C612        H619   1.084       .  S
C613        C614   1.413       .  A
C614        C615   1.393       .  A
C614        N621   1.440       .  S
C615        C616   1.404       .  A
C615        H620   1.085       .  S
C616        C617   1.414       .  A
C617        N618   1.438       .  S
N618        H622   1.046       .  S
N618        H623   1.044       .  S
N621        H624   1.042       .  S
N621        H625   1.046       .  S
C626        C627   1.410       .  A
C626        C631   1.417       .  A
C626        H633   1.084       .  S
C627        C628   1.402       .  A
C628        C629   1.403       .  A
C628        N635   1.432   1_455  S
C629        C630   1.410       .  A
C629        H634   1.083       .  S
C630        C631   1.413       .  A
C631        N632   1.437       .  S
N632        H636   1.046       .  S
N632        H637   1.045       .  S
N635        H638   1.046       .  S
N635        H639   1.045       .  S
C640        C641   1.406       .  A
C640        C645   1.406       .  A
C640        H647   1.084       .  S
C641        C642   1.415       .  A
C642        C643   1.393       .  A
C642        N649   1.432       .  S
C643        C644   1.403       .  A
C643        H648   1.085       .  S
C644        C645   1.417       .  A
C645        N646   1.437       .  S
N646        H650   1.045       .  S
N646        H651   1.044       .  S
N649        H652   1.046       .  S
N649        H653   1.044       .  S
C654        C655   1.415       .  A
C654        C659   1.418       .  A
C654        H661   1.084       .  S
C655        C656   1.407       .  A
C656        C657   1.405       .  A
C656        N663   1.437       .  S
C657        C658   1.405       .  A
C657        H662   1.084       .  S
C658        C659   1.411       .  A
C659        N660   1.438       .  S
N660        H664   1.046       .  S
N660        H665   1.045       .  S
N663        H666   1.046       .  S
N663        H667   1.045       .  S
C668        C669   1.402       .  A
C668        C673   1.400       .  A
C668        H675   1.084       .  S
C669        C670   1.415       .  A
C670        C671   1.415       .  A
C670        N677   1.437       .  S
C671        C672   1.404       .  A
C671        H676   1.084       .  S
C672        C673   1.416       .  A
C673        N674   1.433       .  S
N674        H678   1.043       .  S
N674        H679   1.045       .  S
N677        H680   1.045       .  S
N677        H681   1.046       .  S
C682        C683   1.402       .  A
C682        C687   1.407       .  A
C682        H689   1.084       .  S
C683        C684   1.411       .  A
C684        C685   1.411       .  A
C684        N691   1.439       .  S
C685        C686   1.409       .  A
C685        H690   1.084       .  S
C686        C687   1.421       .  A
C687        N688   1.431       .  S
N688        H692   1.045       .  S
N688        H693   1.044       .  S
N691        H694   1.044       .  S
N691        H695   1.046       .  S
C696        C697   1.414       .  A
C696        C701   1.416       .  A
C696        H703   1.083       .  S
C697        C698   1.414       .  A
C698        C699   1.410       .  A
C698        N705   1.437       .  S
C699        C700   1.408       .  A
C699        H704   1.084       .  S
C700        C701   1.413       .  A
C701        N702   1.437       .  S
N702        H706   1.046       .  S
N702        H707   1.045       .  S
N705        H708   1.046       .  S
N705        H709   1.046       .  S
C710        C711   1.403       .  A
C710        C715   1.396       .  A
C710        H717   1.085       .  S
C711        C712   1.409       .  A
C712        C713   1.398       .  A
C712        N719   1.431       .  S
C713        C714   1.409       .  A
C713        H718   1.083       .  S
C714        C715   1.421       .  A
C715        N716   1.433       .  S
N716        H720   1.045       .  S
N716        H721   1.045       .  S
N719        H722   1.044       .  S
N719        H723   1.046       .  S
C724        C725   1.408       .  A
C724        C729   1.414       .  A
C724        H731   1.083       .  S
C725        C726   1.418       .  A
C726        C727   1.406       .  A
C726        N733   1.439       .  S
C727        C728   1.407       .  A
C727        H732   1.084       .  S
C728        C729   1.411       .  A
C729        N730   1.432       .  S
N730        H734   1.045       .  S
N730        H735   1.046       .  S
N733        H736   1.045       .  S
N733        H737   1.046       .  S
C738        C739   1.407       .  A
C738        C743   1.401       .  A
C738        H745   1.083       .  S
C739        C740   1.419       .  A
C740        C741   1.419       .  A
C740        N747   1.437       .  S
C741        C742   1.406       .  A
C741        H746   1.083       .  S
C742        C743   1.410       .  A
C743        N744   1.439       .  S
N744        H748   1.046       .  S
N744        H749   1.045       .  S
N747        H750   1.046       .  S
N747        H751   1.046       .  S
C752        C753   1.411       .  A
C752        C757   1.408       .  A
C752        H759   1.083       .  S
C753        C754   1.416       .  A
C754        C755   1.403       .  A
C754        N761   1.433       .  S
C755        C756   1.402       .  A
C755        H760   1.084       .  S
C756        C757   1.412       .  A
C757        N758   1.432       .  S
N758        H762   1.045       .  S
N758        H763   1.046       .  S
N761        H764   1.046       .  S
N761        H765   1.046       .  S
