geometry optimzed in LAMMPS
_audit_creation_date              2020-11-30 
_audit_creation_method            'lammps2cif' 
_symmetry_space_group_name_H-M    'P1' 
_symmetry_Int_Tables_number       1 
_symmetry_cell_setting            triclinic 
loop_ 
_symmetry_equiv_pos_as_xyz 
  x,y,z 
_cell_length_a                    36.74696658 
_cell_length_b                    37.803396404586984 
_cell_length_c                    31.839789824709985 
_cell_angle_alpha                 79.1960165896645 
_cell_angle_beta                  81.50633186490101 
_cell_angle_gamma                 90.02885677716358 
loop_ 
_atom_site_label 
_atom_site_type_symbol 
_atom_site_fract_x 
_atom_site_fract_y 
_atom_site_fract_z 
_atom_site_charge 
N1          N  0.40099267  0.31329264  0.00102198    -0.03000
C2          C  0.40203709  0.29379864  0.47183655    -0.00500
C3          C  0.43700028  0.29518586  0.44859468    -0.23300
C4          C  0.45740737  0.31858602  0.46404920    -0.23500
C5          C  0.43511999  0.32936790  0.99424039    -0.00600
H6          H  0.44540330  0.28397323  0.41989112     0.13200
H7          H  0.48484414  0.32883220  0.44970999     0.13300
N8          N  0.11920936  0.36637371  0.00035281    -0.03000
C9          C  0.14988619  0.36750375  0.01945619    -0.00500
C10         C  0.15865396  0.40177070  0.02359649    -0.23300
C11         C  0.13117890  0.42267478  0.01022126    -0.23500
C12         C  0.10660763  0.40123653  0.99584889    -0.00600
H13         H  0.17863441  0.40934304  0.04240893     0.13200
H14         H  0.12740751  0.44935029  0.01732631     0.13300
N15         N  0.33730092  0.02147426  0.03896966    -0.03000
C16         C  0.31484454  0.01604983  0.07773851    -0.00500
C17         C  0.31488013  0.98057032  0.09829902    -0.23300
C18         C  0.33902825  0.96355718  0.07237169    -0.23500
C19         C  0.35381224  0.98923879  0.03690041    -0.00600
H20         H  0.30249980  0.96943743  0.13113312     0.13200
H21         H  0.34908490  0.93676137  0.08184760     0.13300
N22         N  0.50234764  0.39852315  0.50021149    -0.36200
N23         N  0.03125128  0.46421159  0.01254826    -0.56700
N24         N  0.45845902  0.49596315  0.01854473    -0.36200
N25         N  0.42833882  0.42828938  0.51086404    -0.56700
C26         C  0.03473700  0.39069599  0.50920014     0.27400
C27         C  0.48013465  0.36934821  0.51732495     0.27400
C28         C  0.98025143  0.01935940  0.03818645     0.27400
C29         C  0.42194937  0.00434496  0.02737842     0.27400
C30         C  0.06030738  0.45149222  0.98882193     0.36000
C31         C  0.03822058  0.49963871  0.01050928     0.36000
C32         C  0.42145379  0.39570507  0.50113025     0.36000
C33         C  0.39980084  0.44937463  0.50092022     0.36000
C34         C  0.53583826  0.35564610  0.53279974    -0.21500
C35         C  0.50035758  0.34204781  0.53728302    -0.21500
C36         C  0.95550268  0.03950186  0.06039324    -0.21500
C37         C  0.41767588  0.02890462  0.05502629    -0.21500
C38         C  0.08475999  0.47984378  0.96932785    -0.22500
C39         C  0.07136600  0.51004583  0.98427923    -0.22500
C40         C  0.38877454  0.39627956  0.48434062    -0.22500
C41         C  0.37475444  0.42982316  0.48513347    -0.22500
C42         C  0.06623238  0.41364367  0.49535913    -0.17900
C43         C  0.44382877  0.36535125  0.50914930    -0.17900
C44         C  0.39113348  0.98343985  0.51907087    -0.17900
C45         C  0.01598207  0.52078862  0.03563582    -0.17900
H46         H  0.55750052  0.34274190  0.54821284     0.15000
H47         H  0.49034739  0.31539764  0.55384592     0.15000
H48         H  0.96173321  0.05900406  0.07942176     0.15000
H49         H  0.39243270  0.03799390  0.07092912     0.15000
H50         H  0.11073779  0.47842211  0.94875361     0.13300
H51         H  0.08444998  0.53643785  0.97593048     0.13300
H52         H  0.37577782  0.37486517  0.47326268     0.13300
H53         H  0.34554014  0.93953801  0.48233448     0.13300
H54         H  0.49532897  0.42175580  0.47997410     0.26600
H55         H  0.46984616  0.47979292  0.99713779     0.26600
N56         N  0.06146216  0.05893435  0.07105830    -0.03000
C57         C  0.06596563  0.06083736  0.11229540    -0.00500
C58         C  0.04078574  0.03783240  0.14114042    -0.23300
C59         C  0.01871658  0.51609627  0.11538586    -0.23500
C60         C  0.03350956  0.03442269  0.07370836    -0.00600
H61         H  0.03782096  0.03330746  0.17607044     0.13200
H62         H  0.99825458  0.49445435  0.12640810     0.13300
O63         O  0.30441418  0.25230528  0.34152976    -0.74900
O64         O  0.26415955  0.22597752  0.40054728    -0.53800
C65         C  0.29269423  0.24574389  0.38252427     0.78900
O66         O  0.17724103  0.27792981  0.20230733    -0.59500
O67         O  0.20531816  0.24166277  0.15829343    -0.52500
C68         C  0.18661155  0.26909001  0.16505360     0.70900
O69         O  0.16543184  0.27909005  0.34515539    -0.74000
O70         O  0.18395013  0.24072849  0.40191040    -0.54600
C71         C  0.16756070  0.26953435  0.38570637     0.76900
O72         O  0.31785206  0.25545277  0.19770083    -0.59200
O73         O  0.28243951  0.23154133  0.15612867    -0.52300
C74         C  0.31004558  0.25080554  0.16091912     0.73500
Zr75       Zr  0.29071014  0.23800636  0.27382338     2.54700
O76         O  0.30322569  0.30271249  0.26109482    -0.79700
O77         O  0.35551207  0.22443147  0.27394987    -0.93100
Zr78       Zr  0.18435070  0.25687839  0.27811315     2.64700
O79         O  0.20203019  0.32066066  0.26098268    -0.98100
O80         O  0.11902518  0.26834759  0.27936930    -0.80200
O81         O  0.23471590  0.24736851  0.31747923    -0.83500
O82         O  0.24055677  0.24863809  0.23470643    -2.18200
O83         O  0.28344676  0.11170923  0.22664101    -0.66900
O84         O  0.26315026  0.15027811  0.17148490    -0.51500
C85         C  0.27873322  0.12130111  0.18672917     0.71900
O86         O  0.14075762  0.13036888  0.37821719    -0.59800
O87         O  0.17435643  0.15617811  0.42011265    -0.51800
C88         C  0.14878295  0.13501308  0.41490661     0.73700
O89         O  0.14761216  0.13522396  0.23452850    -0.71200
O90         O  0.18719205  0.16360576  0.17562804    -0.49900
C91         C  0.15954716  0.14219737  0.19355878     0.75000
O92         O  0.27824943  0.10891629  0.36904386    -0.66500
O93         O  0.25410439  0.14613158  0.41430783    -0.53700
C94         C  0.27220981  0.11796227  0.40640130     0.73400
Zr95       Zr  0.26905420  0.13342232  0.29524933     2.77500
O96         O  0.25802805  0.06838641  0.31154056    -0.97300
O97         O  0.33577103  0.13024161  0.28796182    -0.78100
Zr98       Zr  0.16204048  0.15222329  0.30117860     2.70100
O99         O  0.14373290  0.08880423  0.31334275    -0.79400
O100        O  0.09850562  0.17128803  0.30567830    -0.98400
Zr101      Zr  0.22084744  0.19366478  0.37057549     2.21500
Zr102      Zr  0.23223845  0.19609320  0.20533475     2.11100
O103        O  0.21791083  0.14247240  0.25792581    -2.47100
O104        O  0.21287894  0.14182982  0.33955508    -0.79200
O105        O  0.28417900  0.18636540  0.24242084    -0.71300
O106        O  0.16951501  0.20391884  0.33178608    -2.32300
O107        O  0.27739416  0.18468653  0.32645890    -2.28500
O108        O  0.17505098  0.20535041  0.24780479    -0.73100
H109        H  0.24622938  0.26961851  0.21211707     0.78900
H110        H  0.14733645  0.20715649  0.35100569     0.80000
H111        H  0.21459458  0.12199771  0.24463330     0.82200
H112        H  0.29710458  0.18064857  0.34361233     0.79800
H113        H  0.11570373  0.29191655  0.28851835     0.42800
H114        H  0.09170126  0.17044533  0.27692781     0.41800
H115        H  0.16535050  0.07711324  0.29987873     0.41500
H116        H  0.24488722  0.06306417  0.28833285     0.39400
H117        H  0.34062012  0.10418632  0.29129899     0.42600
H118        H  0.36254510  0.21349318  0.24810264     0.37600
H119        H  0.29151347  0.31266392  0.23549270     0.43500
H120        H  0.18039574  0.33295650  0.27335677     0.39900
H121        H  0.28266755  0.05818638  0.30575426     0.44800
H122        H  0.35586006  0.20425654  0.29868882     0.43500
H123        H  0.22097489  0.32311001  0.27945221     0.43700
H124        H  0.08415349  0.15107652  0.32549301     0.44000
C125        C  0.11674033  0.14060972  0.13894937    -0.25900
C126        C  0.14049907  0.12261209  0.16612925    -0.14000
C127        C  0.14285261  0.08485146  0.17088790     0.36700
C128        C  0.11942399  0.06556034  0.15132082    -0.25300
C129        C  0.09409762  0.08318150  0.12614348    -0.14600
C130        C  0.09345177  0.12123640  0.11891574     0.37800
N131        N  0.06816317  0.13993928  0.09278522    -0.88800
H132        H  0.11503685  0.16962450  0.13508734     0.18900
H133        H  0.12024684  0.03642656  0.15660733     0.18900
N134        N  0.16845688  0.06615914  0.19662885    -0.87900
H135        H  0.07106966  0.16776574  0.09061949     0.36200
H136        H  0.04148008  0.13249854  0.10850186     0.41300
H137        H  0.19498481  0.07495280  0.18151985     0.41000
H138        H  0.16683446  0.03847674  0.19707038     0.35800
C139        C  0.12156070  0.07662341  0.02789741    -0.25900
C140        C  0.08314207  0.07866082  0.03276011    -0.14000
C141        C  0.06666659  0.10072909  0.49807467     0.36700
C142        C  0.08859508  0.11898129  0.46051500    -0.25300
C143        C  0.12675021  0.11464645  0.45414032    -0.14600
C144        C  0.14322191  0.09129707  0.48564193     0.37800
N145        N  0.18193124  0.08491407  0.48002789    -0.88800
H146        H  0.13442557  0.05980510  0.05269511     0.18900
H147        H  0.07590159  0.13715344  0.43667344     0.18900
N148        N  0.02800549  0.10680875  0.50528202    -0.87900
H149        H  0.19624340  0.10912552  0.47839594     0.36200
H150        H  0.18917634  0.07599461  0.45082552     0.41300
H151        H  0.01730269  0.09634893  0.98064786     0.41000
H152        H  0.02445031  0.13430772  0.50486440     0.35800
C153        C  0.26916039  0.09406786  0.12352250    -0.25900
C154        C  0.29015036  0.09638974  0.15660838    -0.14000
C155        C  0.31971026  0.07307190  0.16222708     0.36700
C156        C  0.32723037  0.04780275  0.13519485    -0.25300
C157        C  0.30569242  0.04484596  0.10295499    -0.14600
C158        C  0.27580973  0.06790990  0.09750588     0.37800
N159        N  0.25100161  0.06491279  0.06728003    -0.88800
H160        H  0.24597132  0.11141297  0.11936130     0.18900
H161        H  0.34986841  0.02980187  0.13970364     0.18900
N162        N  0.34194934  0.07503133  0.19533456    -0.87900
H163        H  0.22466211  0.05915102  0.08494593     0.36200
H164        H  0.25722245  0.04319343  0.05182222     0.41300
H165        H  0.35569039  0.10016093  0.18753541     0.41000
H166        H  0.36224849  0.05565381  0.19548678     0.35800
C167        C  0.32597843  0.08301585  0.50017649    -0.25900
C168        C  0.32471835  0.04550574  0.50207945    -0.14000
C169        C  0.30476791  0.03229648  0.47322326     0.36700
C170        C  0.28767574  0.05623088  0.44301192    -0.25300
C171        C  0.28838363  0.09366847  0.44159621    -0.14600
C172        C  0.30774935  0.10690858  0.47078584     0.37800
N173        N  0.30898072  0.14463543  0.47089580    -0.88800
H174        H  0.33986141  0.09368124  0.52305339     0.18900
H175        H  0.27296166  0.04525918  0.42102099     0.18900
N176        N  0.29856291  0.99601599  0.97803706    -0.87900
H177        H  0.33657257  0.15339153  0.46485264     0.36200
H178        H  0.29806963  0.14808746  0.50204718     0.41300
H179        H  0.30720167  0.98947131  0.94771904     0.41000
H180        H  0.27016991  0.99084034  0.98578745     0.35800
C181        C  0.13489409  0.33518054  0.09370919    -0.25900
C182        C  0.15799134  0.33875514  0.05391038    -0.14000
C183        C  0.19005340  0.31870069  0.05008477     0.36700
C184        C  0.19853193  0.29533224  0.08655436    -0.25300
C185        C  0.17578007  0.29237058  0.12688203    -0.14600
C186        C  0.14330055  0.31195069  0.13009060     0.37800
N187        N  0.11855571  0.30804390  0.17001505    -0.88800
H188        H  0.11035645  0.35101871  0.09658178     0.18900
H189        H  0.22343317  0.28011336  0.08357318     0.18900
N190        N  0.21444194  0.32200078  0.00996858    -0.87900
H191        H  0.09284751  0.29941475  0.16477209     0.36200
H192        H  0.11564946  0.33337806  0.17861035     0.41300
H193        H  0.22363069  0.34886710  0.00015019     0.41000
H194        H  0.19955851  0.31550316  0.98676506     0.35800
C195        C  0.13151423  0.27966984  0.45646467    -0.25900
C196        C  0.14976564  0.29407276  0.41494164    -0.14000
C197        C  0.14985858  0.33208708  0.40116509     0.36700
C198        C  0.13350045  0.35438777  0.42956775    -0.25300
C199        C  0.11740434  0.34034351  0.47237405    -0.14600
C200        C  0.11959548  0.30262814  0.98543158     0.37800
N201        N  0.10559512  0.28545098  0.02895266    -0.88800
H202        H  0.12993156  0.25067839  0.46721526     0.18900
H203        H  0.13632618  0.38336827  0.41942639     0.18900
N204        N  0.16842481  0.34832463  0.35899935    -0.87900
H205        H  0.12734611  0.27276211  0.04294350     0.36200
H206        H  0.09547454  0.30399690  0.04753000     0.41300
H207        H  0.19647242  0.34334256  0.35836000     0.41000
H208        H  0.16598971  0.37630752  0.35358257     0.35800
C209        C  0.31772657  0.28747176  0.08602429    -0.25900
C210        C  0.33398348  0.26981614  0.12118438    -0.14000
C211        C  0.37268494  0.27138230  0.11801953     0.36700
C212        C  0.39425890  0.28803283  0.07901631    -0.25300
C213        C  0.37804848  0.30392832  0.04290934    -0.14600
C214        C  0.33927919  0.30503461  0.04744435     0.37800
N215        N  0.32160184  0.32419506  0.01319839    -0.88800
H216        H  0.28803338  0.28789301  0.08861373     0.18900
H217        H  0.42395596  0.28696754  0.07622850     0.18900
N218        N  0.39030665  0.25474567  0.15364616    -0.87900
H219        H  0.30671122  0.34477831  0.02491128     0.36200
H220        H  0.30255963  0.30669360  0.00570188     0.41300
H221        H  0.40636052  0.27447888  0.16193245     0.41000
H222        H  0.40793764  0.23535597  0.14331486     0.35800
C223        C  0.33856558  0.29106414  0.39007949    -0.25900
C224        C  0.31503701  0.26152967  0.40997626    -0.14000
C225        C  0.31636536  0.24602974  0.45385285     0.36700
C226        C  0.34522218  0.25640324  0.47405080    -0.25300
C227        C  0.37004266  0.28439058  0.45268000    -0.14600
C228        C  0.36533639  0.30301431  0.41131176     0.37800
N229        N  0.38832403  0.33380965  0.39037068    -0.88800
H230        H  0.33678797  0.30464885  0.35732444     0.18900
H231        H  0.34822217  0.24288664  0.50645518     0.18900
N232        N  0.28894225  0.21983048  0.47757873    -0.87900
H233        H  0.37139358  0.35571556  0.38353342     0.36200
H234        H  0.40458665  0.32555722  0.85928496     0.41300
H235        H  0.26383179  0.23283349  0.48035265     0.41000
H236        H  0.29429273  0.21129402  0.50920445     0.35800
N237        N  0.40034534  0.31449653  0.50265444    -0.03000
C238        C  0.40227999  0.29190954  0.97094721    -0.00500
C239        C  0.43730815  0.29232071  0.94805674    -0.23300
C240        C  0.45798969  0.31614561  0.96252849    -0.23500
C241        C  0.43442959  0.33071275  0.49656708    -0.00600
H242        H  0.44554384  0.28039575  0.91986340     0.13200
H243        H  0.48556741  0.32581810  0.94803255     0.13300
N244        N  0.11530923  0.36425535  0.50407426    -0.03000
C245        C  0.14353136  0.36315619  0.52736473    -0.00500
C246        C  0.15250815  0.39631792  0.53488240    -0.23300
C247        C  0.12794385  0.41924068  0.51794336    -0.23500
C248        C  0.10457556  0.39971899  0.49942800    -0.00600
H249        H  0.17078208  0.40196802  0.55671594     0.13200
H250        H  0.12440056  0.44585441  0.52538273     0.13300
N251        N  0.33544362  0.02125049  0.53919900    -0.03000
C252        C  0.31217402  0.01599162  0.57731410    -0.00500
C253        C  0.31140446  0.98056653  0.59814298    -0.23300
C254        C  0.33639844  0.96343339  0.57351644    -0.23500
C255        C  0.35210142  0.98892941  0.53832640    -0.00600
H256        H  0.29838702  0.96972709  0.63081525     0.13200
H257        H  0.34620351  0.93666297  0.58379911     0.13300
N258        N  0.50355341  0.39721452  0.99610019    -0.36200
N259        N  0.03148250  0.46521044  0.51303064    -0.56700
N260        N  0.45794462  0.49934385  0.51344160    -0.36200
N261        N  0.42889023  0.42606847  0.01251292    -0.56700
C262        C  0.03623693  0.39032912  0.00723258     0.27400
C263        C  0.48159896  0.36796089  0.01356518     0.27400
C264        C  0.97810411  0.02045861  0.53320139     0.27400
C265        C  0.42066560  0.00365481  0.52875946     0.27400
C266        C  0.06043602  0.45143399  0.49036980     0.36000
C267        C  0.03965642  0.50043561  0.51092094     0.36000
C268        C  0.42160054  0.39385146  0.00206467     0.36000
C269        C  0.39870431  0.44622183  0.00777626     0.36000
C270        C  0.53762886  0.35440555  0.02778417    -0.21500
C271        C  0.50214958  0.34071494  0.03299445    -0.21500
C272        C  0.95360701  0.04013364  0.55641526    -0.21500
C273        C  0.41702079  0.02884464  0.55559768    -0.21500
C274        C  0.08629066  0.47878924  0.47182070    -0.22500
C275        C  0.07352334  0.50959148  0.48577028    -0.22500
C276        C  0.38708402  0.39391191  0.98964515    -0.22500
C277        C  0.37219448  0.42640586  0.99463410    -0.22500
C278        C  0.06739524  0.41388184  0.99339844    -0.17900
C279        C  0.44495259  0.36393014  0.00673602    -0.17900
C280        C  0.39272557  0.98439294  0.01673067    -0.17900
C281        C  0.01742371  0.52281380  0.53432245    -0.17900
H282        H  0.55946873  0.34154562  0.04272726     0.15000
H283        H  0.49233239  0.31407989  0.04983276     0.15000
H284        H  0.96017698  0.05909618  0.57596682     0.15000
H285        H  0.39193463  0.03834346  0.57137413     0.15000
H286        H  0.11262744  0.47627791  0.45245289     0.13300
H287        H  0.08733503  0.53563155  0.47714903     0.13300
H288        H  0.37341693  0.37280073  0.97885630     0.13300
H289        H  0.34782045  0.94211107  0.97717175     0.13300
H290        H  0.49600103  0.42064203  0.97662329     0.26600
H291        H  0.46993870  0.48244351  0.49326120     0.26600
N292        N  0.06098320  0.05738133  0.56723830    -0.03000
C293        C  0.06624312  0.05719268  0.60892303    -0.00500
C294        C  0.04081931  0.03360691  0.63673887    -0.23300
C295        C  0.01865701  0.52192995  0.61393827    -0.23500
C296        C  0.03219488  0.03386899  0.56890804    -0.00600
H297        H  0.03816016  0.02740445  0.67165983     0.13200
H298        H  0.99675562  0.50181174  0.62585818     0.13300
O299        O  0.30342261  0.25299277  0.83919278    -0.74900
O300        O  0.26392756  0.22665780  0.89886881    -0.53800
C301        C  0.29222872  0.24652411  0.88034878     0.78900
O302        O  0.17002677  0.26938544  0.70393094    -0.59500
O303        O  0.19974725  0.23388072  0.66004005    -0.52500
C304        C  0.17923173  0.26003523  0.66699134     0.70900
O305        O  0.16177437  0.27590709  0.84461326    -0.74000
O306        O  0.18375343  0.24027537  0.90093802    -0.54600
C307        C  0.16568665  0.26793118  0.88476875     0.76900
O308        O  0.31365436  0.25505366  0.69607752    -0.59200
O309        O  0.27895641  0.22925144  0.65542444    -0.52300
C310        C  0.30608027  0.24957278  0.65958274     0.73500
Zr311      Zr  0.28806943  0.23771201  0.77239003     2.54700
O312        O  0.29826462  0.30278043  0.75818036    -0.79700
O313        O  0.35358655  0.22595301  0.76757291    -0.93100
Zr314      Zr  0.18055572  0.25208793  0.77889140     2.64700
O315        O  0.19355492  0.31682113  0.76150239    -0.98100
O316        O  0.11440643  0.25990411  0.78367596    -0.80200
O317        O  0.23207145  0.24595267  0.81658922    -0.83500
O318        O  0.23689122  0.24575005  0.73447070    -2.18200
O319        O  0.28382298  0.10901081  0.72878825    -0.66900
O320        O  0.26291734  0.14722529  0.67375748    -0.51500
C321        C  0.27864885  0.11845790  0.68903429     0.71900
O322        O  0.14043974  0.12937781  0.88203481    -0.59800
O323        O  0.17477654  0.15667500  0.92189400    -0.51800
C324        C  0.14872013  0.13551801  0.91802666     0.73700
O325        O  0.14812539  0.12758283  0.73847695    -0.71200
O326        O  0.18607754  0.15709433  0.67877419    -0.49900
C327        C  0.15931841  0.13470034  0.69723281     0.75000
O328        O  0.28221723  0.11087499  0.86979756    -0.66500
O329        O  0.25582553  0.14717127  0.91501964    -0.53700
C330        C  0.27544337  0.11989846  0.90710173     0.73400
Zr331      Zr  0.27000478  0.13200998  0.79652437     2.77500
O332        O  0.25651518  0.06741113  0.81605377    -0.97300
O333        O  0.33633120  0.12461737  0.78702600    -0.78100
Zr334      Zr  0.16243947  0.14670261  0.80444699     2.70100
O335        O  0.14866011  0.08216394  0.82201045    -0.79400
O336        O  0.09752527  0.16081563  0.80835215    -0.98400
Zr337      Zr  0.22093135  0.19272983  0.87068031     2.21500
Zr338      Zr  0.23039619  0.19207359  0.70678132     2.11100
O339        O  0.21825944  0.13854743  0.76015486    -2.47100
O340        O  0.21410389  0.13936757  0.84190300    -0.79200
O341        O  0.28297945  0.18486216  0.74283650    -0.71300
O342        O  0.16853123  0.19958451  0.83347257    -2.32300
O343        O  0.27741693  0.18463264  0.82579009    -2.28500
O344        O  0.17310492  0.19945520  0.75017077    -0.73100
H345        H  0.24137627  0.26648439  0.71133103     0.78900
H346        H  0.14647169  0.20250556  0.85300759     0.80000
H347        H  0.21544790  0.11771431  0.74732404     0.82200
H348        H  0.29763184  0.18172095  0.84227076     0.79800
H349        H  0.11175324  0.28555976  0.77083616     0.42800
H350        H  0.09716440  0.18430892  0.78852515     0.41800
H351        H  0.17139814  0.07116353  0.81014795     0.41500
H352        H  0.24061056  0.06231687  0.79523478     0.39400
H353        H  0.34649120  0.14674952  0.76682049     0.42600
H354        H  0.35797281  0.21870789  0.79789357     0.37600
H355        H  0.28281619  0.31209917  0.73578807     0.43500
H356        H  0.20911621  0.32109958  0.73277495     0.39900
H357        H  0.28015545  0.05624657  0.80752621     0.44800
H358        H  0.36586447  0.25000769  0.75754213     0.43500
H359        H  0.16975447  0.32759850  0.75600656     0.43700
H360        H  0.08692709  0.14335465  0.79354422     0.44000
C361        C  0.12242548  0.13391878  0.63628308    -0.25900
C362        C  0.14004763  0.11497470  0.66970000    -0.14000
C363        C  0.13692191  0.07698463  0.67874339     0.36700
C364        C  0.11454319  0.05900196  0.65643762    -0.25300
C365        C  0.09494210  0.07784961  0.62485001    -0.14600
C366        C  0.09949276  0.11587541  0.61425001     0.37800
N367        N  0.07945602  0.13625957  0.58288278    -0.88800
H368        H  0.12487967  0.16306525  0.62904044     0.18900
H369        H  0.11149586  0.02990663  0.66469864     0.18900
N370        N  0.15617382  0.05676517  0.71111419    -0.87900
H371        H  0.08570207  0.16379058  0.57884385     0.36200
H372        H  0.05141839  0.13268118  0.59510115     0.41300
H373        H  0.18438046  0.06121831  0.70029813     0.41000
H374        H  0.15096696  0.02913359  0.71418146     0.35800
C375        C  0.12117850  0.07289307  0.52285366    -0.25900
C376        C  0.08297944  0.07719573  0.52915574    -0.14000
C377        C  0.06645423  0.10055912  0.00064489     0.36700
C378        C  0.08834457  0.11887092  0.96309900    -0.25300
C379        C  0.12676186  0.11655351  0.95807088    -0.14600
C380        C  0.14357057  0.09563335  0.99118623     0.37800
N381        N  0.18270896  0.09226285  0.98782386    -0.88800
H382        H  0.13371064  0.05457269  0.54667746     0.18900
H383        H  0.07537011  0.13531058  0.93807904     0.18900
N384        N  0.02740767  0.10452149  0.00644533    -0.87900
H385        H  0.19477818  0.11757478  0.98636783     0.36200
H386        H  0.19235732  0.08307247  0.95932434     0.41300
H387        H  0.01652015  0.10013679  0.47954375     0.41000
H388        H  0.02212012  0.13186541  0.00495266     0.35800
C389        C  0.26727376  0.09161101  0.62667483    -0.25900
C390        C  0.28936825  0.09380340  0.65880088    -0.14000
C391        C  0.31976157  0.07134344  0.66251116     0.36700
C392        C  0.32704607  0.04690382  0.63445324    -0.25300
C393        C  0.30462627  0.04443989  0.60294251    -0.14600
C394        C  0.27446851  0.06681478  0.59908195     0.37800
N395        N  0.25042948  0.06353970  0.56837721    -0.88800
H396        H  0.24343040  0.10829235  0.62397145     0.18900
H397        H  0.34992373  0.02903684  0.63776056     0.18900
N398        N  0.34293908  0.07327006  0.69471041    -0.87900
H399        H  0.24960065  0.08868095  0.54822753     0.36200
H400        H  0.22394079  0.05708731  0.58532005     0.41300
H401        H  0.35589943  0.09877509  0.68718148     0.41000
H402        H  0.36383554  0.05457120  0.69330082     0.35800
C403        C  0.33027800  0.08378076  0.99977075    -0.25900
C404        C  0.32673653  0.04630861  0.00235984    -0.14000
C405        C  0.30524409  0.03381831  0.97453589     0.36700
C406        C  0.28855292  0.05832587  0.94473251    -0.25300
C407        C  0.29150988  0.09573311  0.94238470    -0.14600
C408        C  0.31278695  0.10852716  0.97029732     0.37800
N409        N  0.31665278  0.14649317  0.96858137    -0.88800
H410        H  0.34557472  0.09361366  0.02203777     0.18900
H411        H  0.27243308  0.04785845  0.92364090     0.18900
N412        N  0.30016366  0.99433688  0.47585712    -0.87900
H413        H  0.33400720  0.15165634  0.99010289     0.36200
H414        H  0.29063189  0.15494934  0.97995183     0.41300
H415        H  0.31008128  0.98845927  0.44549926     0.41000
H416        H  0.27198829  0.98780990  0.48266969     0.35800
C417        C  0.12557966  0.32508725  0.59794878    -0.25900
C418        C  0.15016992  0.33188726  0.55911615    -0.14000
C419        C  0.18272429  0.31272530  0.55444602     0.36700
C420        C  0.19064912  0.28744110  0.58943525    -0.25300
C421        C  0.16693880  0.28199554  0.62922409    -0.14600
C422        C  0.13352853  0.29997674  0.63297731     0.37800
N423        N  0.10794361  0.29318716  0.67236870    -0.88800
H424        H  0.10071846  0.34035350  0.60152150     0.18900
H425        H  0.21644972  0.27360905  0.58625455     0.18900
N426        N  0.20865309  0.31956027  0.51536044    -0.87900
H427        H  0.08284876  0.28456084  0.66539783     0.36200
H428        H  0.10380275  0.31748572  0.68332872     0.41300
H429        H  0.21727871  0.34663860  0.50924182     0.41000
H430        H  0.19525180  0.31514523  0.48996732     0.35800
C431        C  0.13425574  0.27976501  0.95706874    -0.25900
C432        C  0.14823547  0.29303099  0.91356665    -0.14000
C433        C  0.14495317  0.33046289  0.89791759     0.36700
C434        C  0.13067983  0.35365080  0.92622172    -0.25300
C435        C  0.11911478  0.34091304  0.97068261    -0.14600
C436        C  0.11537012  0.30175170  0.48500427     0.37800
N437        N  0.09722358  0.28344839  0.52638303    -0.88800
H438        H  0.13501843  0.25110396  0.96955968     0.18900
H439        H  0.13146381  0.38240839  0.91389271     0.18900
N440        N  0.15807078  0.34567405  0.85357821    -0.87900
H441        H  0.11686568  0.26903584  0.54271646     0.36200
H442        H  0.08602548  0.30145067  0.54510515     0.41300
H443        H  0.17851073  0.36516388  0.85268604     0.41000
H444        H  0.13621740  0.35855827  0.83999422     0.35800
C445        C  0.31512473  0.28711085  0.58444130    -0.25900
C446        C  0.33045081  0.26859544  0.61995327    -0.14000
C447        C  0.36909389  0.27029355  0.61816419     0.36700
C448        C  0.39155727  0.28786450  0.58027907    -0.25300
C449        C  0.37641044  0.30476227  0.54387690    -0.14600
C450        C  0.33766743  0.30580205  0.54703106     0.37800
N451        N  0.32108932  0.32608246  0.51251153    -0.88800
H452        H  0.28548758  0.28755204  0.58596036     0.18900
H453        H  0.42118787  0.28677994  0.57854567     0.18900
N454        N  0.38583047  0.25297833  0.65422274    -0.87900
H455        H  0.30561762  0.34610865  0.52471262     0.36200
H456        H  0.30272815  0.30904313  0.50307532     0.41300
H457        H  0.40122800  0.27246000  0.66389779     0.41000
H458        H  0.40397413  0.23400880  0.64380896     0.35800
C459        C  0.33973070  0.29057563  0.88764536    -0.25900
C460        C  0.31496096  0.26207288  0.90769688    -0.14000
C461        C  0.31533444  0.24704861  0.95196314     0.36700
C462        C  0.34433063  0.25655450  0.97248477    -0.25300
C463        C  0.37023264  0.28353574  0.95115783    -0.14600
C464        C  0.36662454  0.30189681  0.90925197     0.37800
N465        N  0.39089384  0.33169643  0.88811846    -0.88800
H466        H  0.33884098  0.30379510  0.85453609     0.18900
H467        H  0.34651360  0.24322916  0.00520933     0.18900
N468        N  0.28668886  0.22226823  0.97586728    -0.87900
H469        H  0.37491621  0.35417985  0.88033169     0.36200
H470        H  0.40194674  0.32856343  0.36104306     0.41300
H471        H  0.26227956  0.23646268  0.97807075     0.41000
H472        H  0.29159943  0.21355558  0.00764570     0.35800
N473        N  0.39863629  0.81725076  0.00163242    -0.03000
C474        C  0.40335920  0.79489035  0.47072115    -0.00500
C475        C  0.43859067  0.79812334  0.44804333    -0.23300
C476        C  0.45733433  0.82183988  0.46477943    -0.23500
C477        C  0.43293251  0.83297050  0.99545190    -0.00600
H478        H  0.44822905  0.78773285  0.41903809     0.13200
H479        H  0.48457655  0.83319028  0.45144157     0.13300
N480        N  0.12324130  0.86577390  0.99936842    -0.03000
C481        C  0.15468210  0.86827149  0.01661618    -0.00500
C482        C  0.16562211  0.90321564  0.01419640    -0.23300
C483        C  0.13840413  0.92368494  0.99924169    -0.23500
C484        C  0.11132426  0.90088749  0.99125383    -0.00600
H485        H  0.18697202  0.91245386  0.03001448     0.13200
H486        H  0.13678369  0.95150876  0.00235692     0.13300
N487        N  0.33645018  0.51656739  0.04331402    -0.03000
C488        C  0.31405515  0.51258136  0.08218040    -0.00500
C489        C  0.31585770  0.47820453  0.10560190    -0.23300
C490        C  0.34082250  0.46051293  0.08142092    -0.23500
C491        C  0.35415551  0.48458373  0.04385481    -0.00600
H492        H  0.30404779  0.46861138  0.13904103     0.13200
H493        H  0.35200717  0.43459130  0.09286298     0.13300
N494        N  0.50017416  0.89842370  0.50121827    -0.36200
N495        N  0.03594241  0.96273821  0.01769227    -0.56700
N496        N  0.45851818  0.00031796  0.01501932    -0.36200
N497        N  0.42606065  0.92861679  0.51529114    -0.56700
C498        C  0.03322328  0.88743890  0.51316970     0.27400
C499        C  0.47760539  0.87008292  0.52082926     0.27400
C500        C  0.97697138  0.51919454  0.03728111     0.27400
C501        C  0.42199170  0.50015867  0.03110684     0.27400
C502        C  0.06379799  0.95080142  0.99130987     0.36000
C503        C  0.04174640  0.99861904  0.01387261     0.36000
C504        C  0.41848355  0.89600132  0.50615653     0.36000
C505        C  0.39761770  0.94991935  0.50573633     0.36000
C506        C  0.53383308  0.85593556  0.53430110    -0.21500
C507        C  0.49790148  0.84300140  0.54110985    -0.21500
C508        C  0.95199171  0.53660095  0.06292862    -0.21500
C509        C  0.41806546  0.52575678  0.05745721    -0.21500
C510        C  0.08595045  0.97998014  0.96865280    -0.22500
C511        C  0.07266116  0.01004172  0.98397594    -0.22500
C512        C  0.38524818  0.89667252  0.49044025    -0.22500
C513        C  0.37185550  0.93056810  0.49077549    -0.22500
C514        C  0.06503677  0.91011950  0.49910505    -0.17900
C515        C  0.44123535  0.86583510  0.51303078    -0.17900
C516        C  0.39235538  0.48260445  0.51482797    -0.17900
C517        C  0.01908487  0.02042064  0.03764422    -0.17900
H518        H  0.55590308  0.84303656  0.54900096     0.15000
H519        H  0.48773606  0.81678708  0.55899717     0.15000
H520        H  0.95808805  0.55416912  0.08434810     0.15000
H521        H  0.39292036  0.53543231  0.07280396     0.15000
H522        H  0.10982746  0.97952454  0.94438607     0.13300
H523        H  0.08372599  0.03714302  0.97277407     0.13300
H524        H  0.37161835  0.87518302  0.48018704     0.13300
H525        H  0.34833669  0.43809889  0.47666355     0.13300
H526        H  0.49297815  0.92111321  0.48018855     0.26600
H527        H  0.47000240  0.98470062  0.99298592     0.26600
N528        N  0.05723784  0.55819987  0.07218358    -0.03000
C529        C  0.06170068  0.55773560  0.11420095    -0.00500
C530        C  0.03807350  0.53185374  0.14120621    -0.23300
C531        C  0.02030787  0.02131384  0.11693300    -0.23500
C532        C  0.03073120  0.53254176  0.07293568    -0.00600
H533        H  0.03531588  0.52494434  0.17610670     0.13200
H534        H  0.99855157  0.00115911  0.12957748     0.13300
O535        O  0.30740388  0.75020574  0.33803714    -0.74900
O536        O  0.26821584  0.72405912  0.39812812    -0.53800
C537        C  0.29684376  0.74333793  0.37930592     0.78900
O538        O  0.17558576  0.77972543  0.20478749    -0.59500
O539        O  0.20039719  0.74197323  0.16078520    -0.52500
C540        C  0.18378462  0.77059304  0.16756716     0.70900
O541        O  0.16841430  0.78089723  0.34607291    -0.74000
O542        O  0.18734365  0.74175317  0.40194240    -0.54600
C543        C  0.17113167  0.77089416  0.38639814     0.76900
O544        O  0.31463784  0.75408495  0.19510841    -0.59200
O545        O  0.27786627  0.73085014  0.15438802    -0.52300
C546        C  0.30595016  0.74990173  0.15859674     0.73500
Zr547      Zr  0.29040541  0.73562474  0.27166729     2.54700
O548        O  0.31123556  0.79857575  0.25423797    -0.79700
O549        O  0.35281683  0.71380160  0.26995219    -0.93100
Zr550      Zr  0.18397636  0.75697853  0.27972577     2.64700
O551        O  0.20003467  0.82108740  0.26074391    -0.98100
O552        O  0.11775976  0.76499803  0.28559419    -0.80200
O553        O  0.23583772  0.74692827  0.31677877    -0.83500
O554        O  0.23889282  0.74721111  0.23492734    -2.18200
O555        O  0.27935980  0.61074625  0.22571568    -0.66900
O556        O  0.25767341  0.64889901  0.17107043    -0.51500
C557        C  0.27392130  0.62024213  0.18603619     0.71900
O558        O  0.13858038  0.63376290  0.38142020    -0.59800
O559        O  0.17508410  0.65801163  0.42166270    -0.51800
C560        C  0.14795628  0.63819177  0.41755655     0.73700
O561        O  0.14366052  0.63398398  0.23924211    -0.71200
O562        O  0.18114057  0.66229854  0.17849946    -0.49900
C563        C  0.15415765  0.64045352  0.19797061     0.75000
O564        O  0.27866423  0.60868437  0.36779405    -0.66500
O565        O  0.25463575  0.64517992  0.41380324    -0.53700
C566        C  0.27290566  0.61722896  0.40548354     0.73400
Zr567      Zr  0.26609068  0.63179177  0.29480618     2.77500
O568        O  0.24857697  0.56799306  0.31377616    -0.97300
O569        O  0.33209989  0.62230805  0.28679734    -0.78100
Zr570      Zr  0.15957877  0.65307494  0.30396977     2.70100
O571        O  0.13822916  0.59035373  0.32099346    -0.79400
O572        O  0.09707574  0.67483142  0.30606326    -0.98400
Zr573      Zr  0.22205463  0.69353293  0.37049407     2.21500
Zr574      Zr  0.22814413  0.69518499  0.20549643     2.11100
O575        O  0.21410781  0.64197689  0.25908340    -2.47100
O576        O  0.21139148  0.64172102  0.34059576    -0.79200
O577        O  0.28100249  0.68426452  0.24095156    -0.71300
O578        O  0.16956917  0.70451164  0.33400393    -2.32300
O579        O  0.27712589  0.68297633  0.32489885    -2.28500
O580        O  0.17239086  0.70572384  0.24984425    -0.73100
H581        H  0.24449447  0.76821569  0.21236098     0.78900
H582        H  0.14805529  0.70821402  0.35395848     0.80000
H583        H  0.21006406  0.62137453  0.24626743     0.82200
H584        H  0.29744995  0.67863984  0.34110564     0.79800
H585        H  0.10800125  0.75533870  0.31630245     0.42800
H586        H  0.08555094  0.66142237  0.28732031     0.41800
H587        H  0.16002871  0.57682687  0.31155086     0.41500
H588        H  0.22668399  0.56659487  0.33634173     0.39400
H589        H  0.34114462  0.63141649  0.25577272     0.42600
H590        H  0.36860768  0.73594057  0.26380960     0.37600
H591        H  0.29955124  0.80919642  0.27888012     0.43500
H592        H  0.17762493  0.83312567  0.27160820     0.39900
H593        H  0.23874842  0.56257295  0.28829168     0.44800
H594        H  0.35765063  0.70375532  0.24315418     0.43500
H595        H  0.21804138  0.82476593  0.27990996     0.43700
H596        H  0.08467400  0.66483770  0.33570170     0.44000
C597        C  0.11614047  0.63721666  0.13849968    -0.25900
C598        C  0.13416056  0.61963921  0.17228834    -0.14000
C599        C  0.13023924  0.58176685  0.18439649     0.36700
C600        C  0.10778327  0.56250625  0.16364068    -0.25300
C601        C  0.08856558  0.57992795  0.13088058    -0.14600
C602        C  0.09276244  0.61789667  0.11835803     0.37800
N603        N  0.07193880  0.63696271  0.08693482    -0.88800
H604        H  0.11866356  0.66629964  0.12947920     0.18900
H605        H  0.10484404  0.53350101  0.17361095     0.18900
N606        N  0.14892727  0.56295796  0.21822643    -0.87900
H607        H  0.07789151  0.66463580  0.08147473     0.36200
H608        H  0.04405971  0.63329511  0.09994298     0.41300
H609        H  0.17722543  0.56643106  0.20746352     0.41000
H610        H  0.14301913  0.53527179  0.22370979     0.35800
C611        C  0.11797950  0.57615099  0.03054037    -0.25900
C612        C  0.07961785  0.57849988  0.03458676    -0.14000
C613        C  0.06576382  0.60393312  0.50080825     0.36700
C614        C  0.08771754  0.62269936  0.46356344    -0.25300
C615        C  0.12596479  0.61870758  0.45736887    -0.14600
C616        C  0.14248172  0.59545977  0.48891602     0.37800
N617        N  0.18129691  0.58963715  0.48379552    -0.88800
H618        H  0.13030405  0.55941699  0.05588803     0.18900
H619        H  0.07495737  0.64078284  0.43970414     0.18900
N620        N  0.02701426  0.60960513  0.50797919    -0.87900
H621        H  0.19516294  0.61395794  0.48287226     0.36200
H622        H  0.18914457  0.58108730  0.45446607     0.41300
H623        H  0.01473865  0.59676406  0.98103142     0.41000
H624        H  0.02315109  0.63699432  0.50807635     0.35800
C625        C  0.26312097  0.58899489  0.12631150    -0.25900
C626        C  0.28600514  0.59560537  0.15597380    -0.14000
C627        C  0.31881863  0.57666946  0.15867754     0.36700
C628        C  0.32710647  0.55026659  0.13349394    -0.25300
C629        C  0.30370622  0.54259620  0.10506831    -0.14600
C630        C  0.27128122  0.56234501  0.10118507     0.37800
N631        N  0.24604989  0.55598794  0.07271385    -0.88800
H632        H  0.23783746  0.60351432  0.12402336     0.18900
H633        H  0.35180908  0.53499819  0.13666579     0.18900
N634        N  0.34357281  0.58426695  0.18708049    -0.87900
H635        H  0.22090910  0.54709653  0.09180067     0.36200
H636        H  0.25480034  0.53543315  0.05614915     0.41300
H637        H  0.35362449  0.61075939  0.17587251     0.41000
H638        H  0.36637420  0.56777363  0.18544179     0.35800
C639        C  0.31939135  0.57979975  0.50551401    -0.25900
C640        C  0.32500105  0.54363648  0.50158690    -0.14000
C641        C  0.31250532  0.53219349  0.46625123     0.36700
C642        C  0.29619885  0.55659379  0.43575769    -0.25300
C643        C  0.28932286  0.59242583  0.44050531    -0.14600
C644        C  0.30017473  0.60353486  0.47697642     0.37800
N645        N  0.29133707  0.63859658  0.48562914    -0.88800
H646        H  0.32837677  0.58913622  0.53250450     0.18900
H647        H  0.28751932  0.54676372  0.40883651     0.18900
N648        N  0.32509837  0.49546318  0.96281966    -0.87900
H649        H  0.30183148  0.64255328  0.51323118     0.36200
H650        H  0.26270873  0.63914830  0.49339776     0.41300
H651        H  0.34200112  0.49605297  0.93321925     0.41000
H652        H  0.29952623  0.48412570  0.96110613     0.35800
C653        C  0.13989649  0.84261291  0.09364613    -0.25900
C654        C  0.16235794  0.84236805  0.05408118    -0.14000
C655        C  0.19214099  0.81926956  0.05188254     0.36700
C656        C  0.19789630  0.79540690  0.08914670    -0.25300
C657        C  0.17527631  0.79528228  0.12902473    -0.14600
C658        C  0.14619188  0.81940545  0.13121813     0.37800
N659        N  0.12273517  0.82016945  0.17117831    -0.88800
H660        H  0.11731063  0.86101332  0.09524347     0.18900
H661        H  0.22070821  0.77738390  0.08701956     0.18900
N662        N  0.21688678  0.81973186  0.01253199    -0.87900
H663        H  0.09566091  0.81498740  0.16707079     0.36200
H664        H  0.12424188  0.84618190  0.17772527     0.41300
H665        H  0.22871718  0.84563660  0.00217251     0.41000
H666        H  0.20179168  0.81430797  0.98901345     0.35800
C667        C  0.13474728  0.77900871  0.45750598    -0.25900
C668        C  0.15329855  0.79458766  0.41653756    -0.14000
C669        C  0.15273997  0.83260802  0.40413253     0.36700
C670        C  0.13555245  0.85389266  0.43317455    -0.25300
C671        C  0.11874435  0.83860078  0.47537663    -0.14600
C672        C  0.12595564  0.80114651  0.98695689     0.37800
N673        N  0.11342277  0.78462062  0.03118225    -0.88800
H674        H  0.13361574  0.74992542  0.46722862     0.18900
H675        H  0.13801820  0.88295619  0.42378026     0.18900
N676        N  0.17140349  0.85011354  0.36275301    -0.87900
H677        H  0.13567105  0.77198097  0.04412023     0.36200
H678        H  0.10445045  0.80341920  0.04995900     0.41300
H679        H  0.19150563  0.86783919  0.36772631     0.41000
H680        H  0.15229907  0.86533204  0.34633969     0.35800
C681        C  0.31442605  0.78939388  0.08476401    -0.25900
C682        C  0.33005953  0.76912011  0.11896620    -0.14000
C683        C  0.36880666  0.76926232  0.11596618     0.36700
C684        C  0.39095728  0.78740150  0.07816085    -0.25300
C685        C  0.37538415  0.80632371  0.04309522    -0.14600
C686        C  0.33667944  0.80840973  0.04738520     0.37800
N687        N  0.31985614  0.82984444  0.01387896    -0.88800
H688        H  0.28480158  0.79090941  0.08727979     0.18900
H689        H  0.42058241  0.78533251  0.07539309     0.18900
N690        N  0.38586888  0.74990821  0.15068197    -0.87900
H691        H  0.30473178  0.84956019  0.02718256     0.36200
H692        H  0.30126987  0.81338223  0.00389396     0.41300
H693        H  0.40245956  0.76813547  0.16086952     0.41000
H694        H  0.40290397  0.73080330  0.13867205     0.35800
C695        C  0.34267281  0.78884793  0.38684041    -0.25900
C696        C  0.32010059  0.75854670  0.40634128    -0.14000
C697        C  0.32196715  0.74269996  0.45004335     0.36700
C698        C  0.34962692  0.75448198  0.47088585    -0.25300
C699        C  0.37267963  0.78400156  0.45052338    -0.14600
C700        C  0.36809243  0.80216600  0.40887177     0.37800
N701        N  0.38962927  0.83408527  0.38862105    -0.88800
H702        H  0.34068862  0.80242376  0.35414002     0.18900
H703        H  0.35289897  0.74098706  0.50321893     0.18900
N704        N  0.29610747  0.71486278  0.47319958    -0.87900
H705        H  0.37161344  0.85500132  0.38144207     0.36200
H706        H  0.39322832  0.83681296  0.86165807     0.41300
H707        H  0.27022636  0.72635532  0.47663678     0.41000
H708        H  0.30179799  0.70641043  0.50469539     0.35800
N709        N  0.39981985  0.81467536  0.50263457    -0.03000
C710        C  0.39926926  0.79819870  0.96938680    -0.00500
C711        C  0.43368966  0.80012269  0.94486233    -0.23300
C712        C  0.45503088  0.82197030  0.96141713    -0.23500
C713        C  0.43314630  0.83219898  0.49759209    -0.00600
H714        H  0.44122960  0.78999268  0.91522809     0.13200
H715        H  0.48235945  0.83233113  0.94677019     0.13300
N716        N  0.11487004  0.86140776  0.50824537    -0.03000
C717        C  0.14277388  0.86062583  0.53199430    -0.00500
C718        C  0.15096764  0.89384313  0.53997423    -0.23300
C719        C  0.12604117  0.91635636  0.52309536    -0.23500
C720        C  0.10336910  0.89656107  0.50406478    -0.00600
H721        H  0.16892402  0.89968627  0.56204436     0.13200
H722        H  0.12178818  0.94289542  0.53059667     0.13300
N723        N  0.33514575  0.51768639  0.53789944    -0.03000
C724        C  0.31371807  0.51192711  0.57747608    -0.00500
C725        C  0.31601271  0.47693710  0.59867807    -0.23300
C726        C  0.34070514  0.46067966  0.57257998    -0.23500
C727        C  0.35349894  0.48627551  0.53613871    -0.00600
H728        H  0.30502512  0.46598800  0.63205499     0.13200
H729        H  0.35242988  0.43470015  0.58237227     0.13300
N730        N  0.50192271  0.89930672  0.99813380    -0.36200
N731        N  0.03047768  0.96280027  0.51320814    -0.56700
N732        N  0.45710698  0.99940179  0.51579668    -0.36200
N733        N  0.42804777  0.93015815  0.01069778    -0.56700
C734        C  0.04021643  0.88928781  0.00698096     0.27400
C735        C  0.47899374  0.87091065  0.01650674     0.27400
C736        C  0.97852937  0.52193296  0.53493933     0.27400
C737        C  0.42125390  0.50379855  0.52430897     0.27400
C738        C  0.05960125  0.94800590  0.49214612     0.36000
C739        C  0.03881295  0.99819946  0.50922247     0.36000
C740        C  0.42061318  0.89791953  0.00052253     0.36000
C741        C  0.39956112  0.95160293  0.00171518     0.36000
C742        C  0.53397383  0.85710966  0.03430490    -0.21500
C743        C  0.49830677  0.84396043  0.03855776    -0.21500
C744        C  0.95403490  0.54205728  0.55744022    -0.21500
C745        C  0.41648594  0.53024553  0.54940930    -0.21500
C746        C  0.08588240  0.97477923  0.47287328    -0.22500
C747        C  0.07306463  0.00638296  0.48460553    -0.22500
C748        C  0.38765266  0.89915481  0.98410320    -0.22500
C749        C  0.37407683  0.93286575  0.98558857    -0.22500
C750        C  0.07128670  0.91334144  0.99360635    -0.17900
C751        C  0.44264594  0.86728877  0.00836294    -0.17900
C752        C  0.39248752  0.47941787  0.02229935    -0.17900
C753        C  0.01713060  0.02113354  0.53226617    -0.17900
H754        H  0.55503853  0.84478056  0.05140806     0.15000
H755        H  0.48747882  0.81805036  0.05671387     0.15000
H756        H  0.96052224  0.56154438  0.57636976     0.15000
H757        H  0.39105771  0.54077399  0.56270439     0.15000
H758        H  0.11248996  0.97142397  0.45455399     0.13300
H759        H  0.08723697  0.03222460  0.47519744     0.13300
H760        H  0.37425131  0.87809912  0.97280775     0.13300
H761        H  0.34440538  0.43371919  0.99058649     0.13300
H762        H  0.49547690  0.92218449  0.97684627     0.26600
H763        H  0.46811529  0.98333922  0.49405383     0.26600
N764        N  0.06029657  0.55989405  0.56933663    -0.03000
C765        C  0.06512418  0.56023265  0.61092224    -0.00500
C766        C  0.03957175  0.53700064  0.63893485    -0.23300
C767        C  0.01950238  0.01907855  0.61173993    -0.23500
C768        C  0.03187038  0.53607706  0.57099044    -0.00600
H769        H  0.03682891  0.53114512  0.67387217     0.13200
H770        H  0.99755831  0.99899154  0.62357322     0.13300
O771        O  0.30450333  0.75010805  0.84153187    -0.74900
O772        O  0.26582394  0.72211519  0.90117245    -0.53800
C773        C  0.29298274  0.74350599  0.88263056     0.78900
O774        O  0.17203999  0.76711100  0.70793074    -0.59500
O775        O  0.20212524  0.73238655  0.66334972    -0.52500
C776        C  0.18117240  0.75815807  0.67082560     0.70900
O777        O  0.16768417  0.77322100  0.84685090    -0.74000
O778        O  0.18802798  0.73639861  0.90338708    -0.54600
C779        C  0.17112984  0.76485803  0.88702742     0.76900
O780        O  0.31679052  0.75093064  0.69775529    -0.59200
O781        O  0.28115172  0.72635814  0.65704675    -0.52300
C782        C  0.30848174  0.74637643  0.66111899     0.73500
Zr783      Zr  0.29205949  0.73250193  0.77465790     2.54700
O784        O  0.30583143  0.79705095  0.75800403    -0.79700
O785        O  0.35690127  0.71853269  0.77371077    -0.93100
Zr786      Zr  0.18503156  0.74917496  0.78146113     2.64700
O787        O  0.20261824  0.81288238  0.76060216    -0.98100
O788        O  0.11921431  0.75931256  0.78778581    -0.80200
O789        O  0.23625599  0.74099542  0.81925410    -0.83500
O790        O  0.24094230  0.74217647  0.73691249    -2.18200
O791        O  0.28456182  0.60515952  0.72875946    -0.66900
O792        O  0.26293265  0.64355775  0.67433523    -0.51500
C793        C  0.27865612  0.61467276  0.68921139     0.71900
O794        O  0.13949525  0.62761267  0.88309573    -0.59800
O795        O  0.17510778  0.65287086  0.92339885    -0.51800
C796        C  0.14786098  0.63311718  0.91937177     0.73700
O797        O  0.15026485  0.62623380  0.73899549    -0.71200
O798        O  0.18803618  0.65650541  0.67958051    -0.49900
C799        C  0.16123473  0.63419473  0.69774486     0.75000
O800        O  0.28381322  0.60636267  0.87104320    -0.66500
O801        O  0.25796985  0.64200644  0.91722002    -0.53700
C802        C  0.27764957  0.61497517  0.90865008     0.73400
Zr803      Zr  0.27165858  0.62735568  0.79753689     2.77500
O804        O  0.25972407  0.56246397  0.81187846    -0.97300
O805        O  0.33804893  0.62022661  0.79041025    -0.78100
Zr806      Zr  0.16393555  0.64446015  0.80574317     2.70100
O807        O  0.14427885  0.58122724  0.82342395    -0.79400
O808        O  0.10098791  0.66432806  0.80454129    -0.98400
Zr809      Zr  0.22334609  0.68771354  0.87300501     2.21500
Zr810      Zr  0.23309238  0.68919439  0.70855297     2.11100
O811        O  0.21972497  0.63555228  0.76164771    -2.47100
O812        O  0.21565978  0.63484752  0.84325646    -0.79200
O813        O  0.28600826  0.68024384  0.74411300    -0.71300
O814        O  0.17133541  0.69659930  0.83557098    -2.32300
O815        O  0.27973075  0.67932101  0.82781712    -2.28500
O816        O  0.17627220  0.69731088  0.75202683    -0.73100
H817        H  0.24558243  0.76316469  0.71411996     0.78900
H818        H  0.14936464  0.70002066  0.85498732     0.80000
H819        H  0.21648578  0.61489465  0.74862994     0.82200
H820        H  0.29973397  0.67598611  0.84456349     0.79800
H821        H  0.11695320  0.78536452  0.78807545     0.42800
H822        H  0.10331172  0.68808917  0.78486156     0.41800
H823        H  0.16421572  0.56877457  0.80799944     0.41500
H824        H  0.28442637  0.55193940  0.81130653     0.39400
H825        H  0.34569167  0.61717948  0.76019092     0.42600
H826        H  0.35744692  0.69839177  0.79842696     0.37600
H827        H  0.33052137  0.79963263  0.76620858     0.43500
H828        H  0.17901161  0.82552865  0.76191700     0.39900
H829        H  0.24826414  0.55639603  0.84258140     0.44800
H830        H  0.36800986  0.73933821  0.78253158     0.43500
H831        H  0.21386965  0.81854943  0.78505318     0.43700
H832        H  0.08987264  0.64820719  0.78843534     0.44000
C833        C  0.12142509  0.63571898  0.63949994    -0.25900
C834        C  0.14152425  0.61575016  0.66972517    -0.14000
C835        C  0.14028981  0.57783171  0.67548539     0.36700
C836        C  0.11662852  0.56061711  0.65399740    -0.25300
C837        C  0.09442354  0.58034299  0.62609253    -0.14600
C838        C  0.09767307  0.61842049  0.61782183     0.37800
N839        N  0.07573725  0.63940732  0.58906692    -0.88800
H840        H  0.12273091  0.66487054  0.63457390     0.18900
H841        H  0.11467738  0.53145122  0.66000949     0.18900
N842        N  0.16258324  0.55690711  0.70391234    -0.87900
H843        H  0.08133704  0.66692275  0.58645184     0.36200
H844        H  0.04811552  0.63472664  0.60281320     0.41300
H845        H  0.19015493  0.56316308  0.69092821     0.41000
H846        H  0.15858119  0.52939714  0.70467414     0.35800
C847        C  0.12040261  0.57643315  0.52560774    -0.25900
C848        C  0.08215447  0.58014756  0.53154378    -0.14000
C849        C  0.06372541  0.60031717  0.00164701     0.36700
C850        C  0.08633572  0.61785423  0.96397994    -0.25300
C851        C  0.12478260  0.61499772  0.95960991    -0.14600
C852        C  0.14068276  0.59440773  0.99382370     0.37800
N853        N  0.17967193  0.59040702  0.99157180    -0.88800
H854        H  0.13298322  0.55804429  0.54932007     0.18900
H855        H  0.07389938  0.63412812  0.93836963     0.18900
N856        N  0.02478663  0.60505604  0.00678614    -0.87900
H857        H  0.19210562  0.61557602  0.98997811     0.36200
H858        H  0.18964304  0.58063047  0.96356800     0.41300
H859        H  0.01573992  0.60318855  0.48197140     0.41000
H860        H  0.02007171  0.63256358  0.00466259     0.35800
C861        C  0.26367088  0.58341334  0.63162116    -0.25900
C862        C  0.28884760  0.59004118  0.65878988    -0.14000
C863        C  0.32261241  0.57256666  0.65706359     0.36700
C864        C  0.32991156  0.54768105  0.62954085    -0.25300
C865        C  0.30454098  0.54044809  0.60298752    -0.14600
C866        C  0.27083854  0.55844302  0.60414218     0.37800
N867        N  0.24334767  0.55198546  0.57843340    -0.88800
H868        H  0.23770414  0.59705732  0.63260619     0.18900
H869        H  0.35533143  0.53321363  0.62947220     0.18900
N870        N  0.34939812  0.58034057  0.68298516    -0.87900
H871        H  0.21990859  0.54095501  0.59962630     0.36200
H872        H  0.25172924  0.53303841  0.55926230     0.41300
H873        H  0.35779029  0.60738634  0.67239848     0.41000
H874        H  0.37286811  0.56517900  0.67783332     0.35800
C875        C  0.32409298  0.57925660  0.00889457    -0.25900
C876        C  0.32953560  0.54287697  0.00564920    -0.14000
C877        C  0.31984186  0.53169329  0.96875876     0.36700
C878        C  0.30337644  0.55563996  0.93814907    -0.25300
C879        C  0.29514981  0.59112944  0.94320036    -0.14600
C880        C  0.30614130  0.60289089  0.97906859     0.37800
N881        N  0.29934338  0.63878879  0.98554709    -0.88800
H882        H  0.33236149  0.58915127  0.03590989     0.18900
H883        H  0.29587434  0.54570605  0.91070772     0.18900
N884        N  0.31439322  0.49524795  0.46216718    -0.87900
H885        H  0.32467294  0.65103432  0.98639094     0.36200
H886        H  0.28323037  0.63728897  0.01582842     0.41300
H887        H  0.32937930  0.49401885  0.43191648     0.41000
H888        H  0.28764131  0.48544914  0.46291377     0.35800
C889        C  0.12563615  0.82217357  0.60260186    -0.25900
C890        C  0.14989112  0.82928424  0.56349541    -0.14000
C891        C  0.18276292  0.81062238  0.55849192     0.36700
C892        C  0.19137977  0.78566323  0.59336342    -0.25300
C893        C  0.16816183  0.78007044  0.63346169    -0.14600
C894        C  0.13447371  0.79761526  0.63770102     0.37800
N895        N  0.10952150  0.79098249  0.67760788    -0.88800
H896        H  0.10045436  0.83696036  0.60637447     0.18900
H897        H  0.21735029  0.77217039  0.58977830     0.18900
N898        N  0.20834969  0.81761175  0.51913847    -0.87900
H899        H  0.08432746  0.78184358  0.67146763     0.36200
H900        H  0.10529339  0.81544308  0.68816803     0.41300
H901        H  0.21649809  0.84482753  0.51267324     0.41000
H902        H  0.19487406  0.81268806  0.49403443     0.35800
C903        C  0.14078720  0.77784287  0.95920631    -0.25900
C904        C  0.15414170  0.79043671  0.91539943    -0.14000
C905        C  0.15000597  0.82759560  0.89875582     0.36700
C906        C  0.13508720  0.85111600  0.92621097    -0.25300
C907        C  0.12413919  0.83920642  0.97092493    -0.14600
C908        C  0.11754686  0.79998827  0.48671741     0.37800
N909        N  0.09938566  0.78063118  0.52755767    -0.88800
H910        H  0.14230322  0.74939665  0.97247046     0.18900
H911        H  0.13495470  0.87966581  0.91292069     0.18900
N912        N  0.16273403  0.84229012  0.85415961    -0.87900
H913        H  0.11915817  0.76622462  0.54367031     0.36200
H914        H  0.08774485  0.79800129  0.54696669     0.41300
H915        H  0.18265535  0.86243968  0.85261535     0.41000
H916        H  0.14053447  0.85424643  0.84040722     0.35800
C917        C  0.31566690  0.78309493  0.58542037    -0.25900
C918        C  0.33192832  0.76613532  0.62104852    -0.14000
C919        C  0.37053091  0.76934328  0.61841839     0.36700
C920        C  0.39203349  0.78748012  0.58012974    -0.25300
C921        C  0.37606993  0.80309331  0.54378421    -0.14600
C922        C  0.33724594  0.80194243  0.54729739     0.37800
N923        N  0.31955008  0.82020158  0.51254994    -0.88800
H924        H  0.28600194  0.78204490  0.58730157     0.18900
H925        H  0.42171189  0.78783784  0.57807943     0.18900
N926        N  0.38831232  0.75281894  0.65395525    -0.87900
H927        H  0.30286959  0.83971448  0.52417323     0.36200
H928        H  0.30219816  0.80166826  0.50403176     0.41300
H929        H  0.40323208  0.77287174  0.66321424     0.41000
H930        H  0.40698436  0.73442770  0.64313337     0.35800
C931        C  0.33384098  0.79314427  0.89064432    -0.25900
C932        C  0.31359839  0.76130429  0.90996653    -0.14000
C933        C  0.31638619  0.74570279  0.95346594     0.36700
C934        C  0.34420113  0.75833544  0.97340533    -0.25300
C935        C  0.36653816  0.78817503  0.95212284    -0.14600
C936        C  0.35954799  0.80709553  0.91180968     0.37800
N937        N  0.37939658  0.84004364  0.89177659    -0.88800
H938        H  0.33053433  0.80677997  0.85836588     0.18900
H939        H  0.34881339  0.74465734  0.00517598     0.18900
N940        N  0.29184127  0.71677075  0.97685454    -0.87900
H941        H  0.36028774  0.86028982  0.88660033     0.36200
H942        H  0.40433277  0.82953851  0.35949598     0.41300
H943        H  0.26543338  0.72711489  0.98083735     0.41000
H944        H  0.29818678  0.70835900  0.00807492     0.35800
N945        N  0.89960768  0.31647342  0.00067845    -0.03000
C946        C  0.90176513  0.29328656  0.47416336    -0.00500
C947        C  0.93759332  0.29338833  0.45372389    -0.23300
C948        C  0.95674216  0.31817523  0.46837912    -0.23500
C949        C  0.93363888  0.33275508  0.99468006    -0.00600
H950        H  0.94754768  0.28032537  0.42691166     0.13200
H951        H  0.98473175  0.32756949  0.45553531     0.13300
N952        N  0.62059546  0.36696104  0.00045588    -0.03000
C953        C  0.65052162  0.36969586  0.02023361    -0.00500
C954        C  0.65991575  0.40465158  0.02035882    -0.23300
C955        C  0.63349522  0.42490136  0.00316505    -0.23500
C956        C  0.60838147  0.40181541  0.99208243    -0.00600
H957        H  0.67977650  0.41383194  0.03822163     0.13200
H958        H  0.63056601  0.45269271  0.00623312     0.13300
N959        N  0.83937090  0.02117646  0.03904848    -0.03000
C960        C  0.81694593  0.01688373  0.07787282    -0.00500
C961        C  0.81771537  0.98209571  0.10039322    -0.23300
C962        C  0.84225156  0.96438384  0.07578618    -0.23500
C963        C  0.85655298  0.98890132  0.03895783    -0.00600
H964        H  0.80556725  0.97208845  0.13361765     0.13200
H965        H  0.85277803  0.93806007  0.08681672     0.13300
N966        N  0.00088331  0.39929911  0.49928563    -0.36200
N967        N  0.53280943  0.46168795  0.01517592    -0.56700
N968        N  0.95821731  0.50015391  0.01470726    -0.36200
N969        N  0.92795689  0.43041012  0.51150265    -0.56700
C970        C  0.53667173  0.39010612  0.50875246     0.27400
C971        C  0.97795012  0.37103649  0.51823898     0.27400
C972        C  0.47726287  0.02028214  0.03662693     0.27400
C973        C  0.92493540  0.00375190  0.02859222     0.27400
C974        C  0.56033176  0.45039702  0.98795872     0.36000
C975        C  0.53841142  0.49746950  0.01180067     0.36000
C976        C  0.91953890  0.39770593  0.50300203     0.36000
C977        C  0.89908739  0.45172570  0.50396305     0.36000
C978        C  0.03281518  0.35739249  0.53615101    -0.21500
C979        C  0.99718284  0.34429067  0.54073369    -0.21500
C980        C  0.45235634  0.03882043  0.06087218    -0.21500
C981        C  0.92080714  0.02990142  0.05414259    -0.21500
C982        C  0.58221306  0.47974565  0.96537097    -0.22500
C983        C  0.56876784  0.50950573  0.98128045    -0.22500
C984        C  0.88555577  0.39837754  0.48929193    -0.22500
C985        C  0.87230850  0.43212508  0.49088596    -0.22500
C986        C  0.56753652  0.41408979  0.49535536    -0.17900
C987        C  0.94165886  0.36712817  0.51021282    -0.17900
C988        C  0.89273233  0.98468299  0.51494406    -0.17900
C989        C  0.51633983  0.51836931  0.03715793    -0.17900
H990        H  0.05375763  0.34551381  0.55384854     0.15000
H991        H  0.98628281  0.31860360  0.55947525     0.15000
H992        H  0.45845142  0.05735588  0.08116444     0.15000
H993        H  0.89558089  0.04032677  0.06829424     0.15000
H994        H  0.60642890  0.47938556  0.94155232     0.13300
H995        H  0.57968660  0.53672401  0.97068513     0.13300
H996        H  0.87106786  0.37680646  0.48027691     0.13300
H997        H  0.84732079  0.94108113  0.47721899     0.13300
H998        H  0.99457455  0.42193615  0.47753013     0.26600
H999        H  0.96972710  0.48535030  0.99176851     0.26600
N1000       N  0.55718134  0.05989229  0.07167030    -0.03000
C1001       C  0.56035421  0.06117928  0.11360873    -0.00500
C1002       C  0.53561015  0.03652003  0.14092974    -0.23300
C1003       C  0.51960954  0.51595181  0.11672620    -0.23500
C1004       C  0.53044352  0.03441897  0.07268099    -0.00600
H1005       H  0.53170154  0.03100092  0.17592289     0.13200
H1006       H  0.49820859  0.49536957  0.12901887     0.13300
O1007       O  0.80673801  0.25054443  0.33921508    -0.74900
O1008       O  0.76639974  0.22568184  0.39883647    -0.53800
C1009       C  0.79549297  0.24431558  0.38038210     0.78900
O1010       O  0.67385138  0.27888011  0.20418570    -0.59500
O1011       O  0.69993720  0.24189631  0.15984405    -0.52500
C1012       C  0.68208405  0.26970505  0.16701175     0.70900
O1013       O  0.66791955  0.28110045  0.34577823    -0.74000
O1014       O  0.68682062  0.24249849  0.40200024    -0.54600
C1015       C  0.67054382  0.27145627  0.38612388     0.76900
O1016       O  0.81361062  0.25740769  0.19473453    -0.59200
O1017       O  0.77779911  0.23295346  0.15391340    -0.52300
C1018       C  0.80533600  0.25271760  0.15815244     0.73500
Zr1019     Zr  0.79020034  0.23770574  0.27166834     2.54700
O1020       O  0.80746417  0.30129693  0.26142014    -0.79700
O1021       O  0.85413985  0.21996938  0.26673438    -0.93100
Zr1022     Zr  0.68425027  0.25867096  0.27885559     2.64700
O1023       O  0.70227873  0.32228507  0.25796269    -0.98100
O1024       O  0.61906028  0.27207651  0.28722704    -0.80200
O1025       O  0.73549143  0.24834305  0.31672530    -0.83500
O1026       O  0.73912442  0.24907915  0.23408258    -2.18200
O1027       O  0.78111259  0.11250570  0.22524086    -0.66900
O1028       O  0.75853280  0.15013857  0.17096872    -0.51500
C1029       C  0.77546985  0.12181927  0.18564158     0.71900
O1030       O  0.63638160  0.13658623  0.38047815    -0.59800
O1031       O  0.67367043  0.15950044  0.42087407    -0.51800
C1032       C  0.64589082  0.14048294  0.41673856     0.73700
O1033       O  0.64264210  0.13687548  0.23887838    -0.71200
O1034       O  0.68093306  0.16421196  0.17829195    -0.49900
C1035       C  0.65331315  0.14312083  0.19767985     0.75000
O1036       O  0.77916735  0.11085210  0.36716473    -0.66500
O1037       O  0.75546368  0.14746589  0.41321647    -0.53700
C1038       C  0.77401921  0.11976639  0.40465260     0.73400
Zr1039     Zr  0.76603074  0.13333504  0.29421322     2.77500
O1040       O  0.74666781  0.07008067  0.30818535    -0.97300
O1041       O  0.83156722  0.12105023  0.28488776    -0.78100
Zr1042     Zr  0.65931814  0.15520170  0.30336111     2.70100
O1043       O  0.63488130  0.09352112  0.32104268    -0.79400
O1044       O  0.59866496  0.18105018  0.30260079    -0.98400
Zr1045     Zr  0.72154866  0.19467391  0.37012845     2.21500
Zr1046     Zr  0.72855830  0.19662144  0.20505716     2.11100
O1047       O  0.71397100  0.14362629  0.25866126    -2.47100
O1048       O  0.71104285  0.14279176  0.34019433    -0.79200
O1049       O  0.78122253  0.18611249  0.24093847    -0.71300
O1050       O  0.66940400  0.20639865  0.33326840    -2.32300
O1051       O  0.77694508  0.18459256  0.32441118    -2.28500
O1052       O  0.67271547  0.20749348  0.24907530    -0.73100
H1053       H  0.74443024  0.27008902  0.21146256     0.78900
H1054       H  0.64783695  0.21026802  0.35298397     0.80000
H1055       H  0.70987697  0.12306574  0.24577373     0.82200
H1056       H  0.79726571  0.18029560  0.34057674     0.79800
H1057       H  0.61042502  0.26639952  0.26117132     0.42800
H1058       H  0.58411494  0.16357303  0.29178935     0.41800
H1059       H  0.65666307  0.07865717  0.32548622     0.41500
H1060       H  0.76994779  0.05688379  0.30653330     0.39400
H1061       H  0.83957980  0.12205438  0.31299447     0.42600
H1062       H  0.86854814  0.24282724  0.25579339     0.37600
H1063       H  0.78851803  0.31123455  0.28117449     0.43500
H1064       H  0.67873685  0.33506215  0.25956168     0.39900
H1065       H  0.73593820  0.06461899  0.33916985     0.44800
H1066       H  0.85782465  0.20688112  0.24232120     0.43500
H1067       H  0.71376017  0.32776003  0.28231992     0.43700
H1068       H  0.58807705  0.17872430  0.33347411     0.44000
C1069       C  0.61650297  0.14015350  0.13686849    -0.25900
C1070       C  0.63285305  0.12260270  0.17214525    -0.14000
C1071       C  0.62700449  0.08500794  0.18573281     0.36700
C1072       C  0.60484201  0.06595589  0.16453235    -0.25300
C1073       C  0.58737223  0.08328327  0.13017169    -0.14600
C1074       C  0.59314751  0.12105385  0.11638805     0.37800
N1075       N  0.57404760  0.14019204  0.08324802    -0.88800
H1076       H  0.62039578  0.16907707  0.12677018     0.18900
H1077       H  0.60061436  0.03714714  0.17555530     0.18900
N1078       N  0.64338609  0.06624234  0.22160257    -0.87900
H1079       H  0.58099181  0.16769526  0.07709795     0.36200
H1080       H  0.54586867  0.13768645  0.09497861     0.41300
H1081       H  0.67195385  0.06818958  0.21251721     0.41000
H1082       H  0.63611129  0.03880416  0.22806957     0.35800
C1083       C  0.61813927  0.07652893  0.02988106    -0.25900
C1084       C  0.57981518  0.07950809  0.03401369    -0.14000
C1085       C  0.56332351  0.10367561  0.49915705     0.36700
C1086       C  0.58523973  0.12339061  0.46230687    -0.25300
C1087       C  0.62371365  0.12074596  0.45659477    -0.14600
C1088       C  0.64037531  0.09780575  0.48830459     0.37800
N1089       N  0.67939354  0.09322884  0.48390307    -0.88800
H1090       H  0.63030512  0.05968348  0.05528771     0.18900
H1091       H  0.57223396  0.14109055  0.43834208     0.18900
N1092       N  0.52434610  0.10807738  0.50578280    -0.87900
H1093       H  0.69233395  0.11782802  0.48394672     0.36200
H1094       H  0.68823325  0.08527298  0.45441371     0.41300
H1095       H  0.51482358  0.09853623  0.98083214     0.41000
H1096       H  0.51945988  0.13526146  0.50622762     0.35800
C1097       C  0.76576080  0.09151242  0.12466116    -0.25900
C1098       C  0.78809816  0.09746633  0.15520356    -0.14000
C1099       C  0.82100152  0.07847720  0.15782189     0.36700
C1100       C  0.83006229  0.05311051  0.13120021    -0.25300
C1101       C  0.80731131  0.04654842  0.10157656    -0.14600
C1102       C  0.77496073  0.06594127  0.09819218     0.37800
N1103       N  0.75093111  0.05898180  0.06894578    -0.88800
H1104       H  0.74029865  0.10573016  0.12249998     0.18900
H1105       H  0.85473187  0.03774686  0.13420208     0.18900
N1106       N  0.84504952  0.08493627  0.18751912    -0.87900
H1107       H  0.74783975  0.08315217  0.04780056     0.36200
H1108       H  0.72513168  0.05092135  0.08691569     0.41300
H1109       H  0.85507408  0.11155482  0.17778819     0.41000
H1110       H  0.86793632  0.06856419  0.18560561     0.35800
C1111       C  0.82479589  0.08364860  0.50148897    -0.25900
C1112       C  0.82687197  0.04669858  0.49998415    -0.14000
C1113       C  0.81146192  0.03458055  0.46689787     0.36700
C1114       C  0.79466175  0.05881824  0.43683344    -0.25300
C1115       C  0.79123432  0.09549450  0.43920874    -0.14600
C1116       C  0.80670845  0.10789586  0.47216510     0.37800
N1117       N  0.80418959  0.14499855  0.47590022    -0.88800
H1118       H  0.83590842  0.09331582  0.52704861     0.18900
H1119       H  0.78313084  0.04839819  0.41200631     0.18900
N1120       N  0.81190644  0.99524030  0.96939549    -0.87900
H1121       H  0.81865568  0.15014467  0.50013965     0.36200
H1122       H  0.77651310  0.14929949  0.48639949     0.41300
H1123       H  0.82441920  0.99144409  0.93892869     0.41000
H1124       H  0.78429862  0.98679605  0.97346340     0.35800
C1125       C  0.63403082  0.33900850  0.09521927    -0.25900
C1126       C  0.65825849  0.34243014  0.05621674    -0.14000
C1127       C  0.68998568  0.32191834  0.05345739     0.36700
C1128       C  0.69632761  0.29713270  0.08965245    -0.25300
C1129       C  0.67223170  0.29372674  0.12902583    -0.14600
C1130       C  0.64071600  0.31472192  0.13171034     0.37800
N1131       N  0.61538381  0.31128161  0.17113430    -0.88800
H1132       H  0.60983169  0.35538306  0.09721517     0.18900
H1133       H  0.72088771  0.28135782  0.08738373     0.18900
N1134       N  0.71628775  0.32627792  0.01475139    -0.87900
H1135       H  0.58945846  0.30416351  0.16497221     0.36200
H1136       H  0.61358598  0.33648159  0.18022458     0.41300
H1137       H  0.72605018  0.35304601  0.00714449     0.41000
H1138       H  0.70288557  0.32127095  0.98961635     0.35800
C1139       C  0.63798452  0.28139249  0.45841812    -0.25900
C1140       C  0.65297692  0.29580350  0.41556518    -0.14000
C1141       C  0.64940598  0.33335472  0.40069626     0.36700
C1142       C  0.63317064  0.35537177  0.42938008    -0.25300
C1143       C  0.62066416  0.34157289  0.47334038    -0.14600
C1144       C  0.62411425  0.30274630  0.98667686     0.37800
N1145       N  0.61005265  0.28553460  0.03019295    -0.88800
H1146       H  0.63893557  0.25260492  0.47002170     0.18900
H1147       H  0.63325959  0.38424119  0.41813286     0.18900
N1148       N  0.66398011  0.34961438  0.35691293    -0.87900
H1149       H  0.63182489  0.27288851  0.04419132     0.36200
H1150       H  0.60001560  0.30391231  0.04897926     0.41300
H1151       H  0.69260351  0.34764884  0.35354711     0.41000
H1152       H  0.65857899  0.37710503  0.35078506     0.35800
C1153       C  0.81476201  0.29219093  0.08394364    -0.25900
C1154       C  0.82975050  0.27149649  0.11846394    -0.14000
C1155       C  0.86841349  0.26989223  0.11536213     0.36700
C1156       C  0.89108393  0.28689755  0.07734510    -0.25300
C1157       C  0.87610848  0.30626302  0.04205506    -0.14600
C1158       C  0.83761529  0.30992946  0.04620431     0.37800
N1159       N  0.82165664  0.33149356  0.01204765    -0.88800
H1160       H  0.78524403  0.29482071  0.08636290     0.18900
H1161       H  0.92057257  0.28360251  0.07459365     0.18900
N1162       N  0.88477740  0.24973841  0.15018290    -0.87900
H1163       H  0.80742586  0.35207990  0.02456179     0.36200
H1164       H  0.80241088  0.31547566  0.00246516     0.41300
H1165       H  0.90243478  0.26716892  0.16010702     0.41000
H1166       H  0.90063278  0.22976738  0.13837365     0.35800
C1167       C  0.84365047  0.28755264  0.38769543    -0.25900
C1168       C  0.81858767  0.25931182  0.40776834    -0.14000
C1169       C  0.81800098  0.24501366  0.45243084     0.36700
C1170       C  0.84590232  0.25560353  0.47382382    -0.25300
C1171       C  0.87148172  0.28297935  0.45288324    -0.14600
C1172       C  0.86932553  0.29996912  0.41005340     0.37800
N1173       N  0.89366792  0.32970455  0.38889384    -0.88800
H1174       H  0.84359416  0.30011566  0.35418438     0.18900
H1175       H  0.84721621  0.24311581  0.50707896     0.18900
N1176       N  0.78925579  0.22021637  0.47603246    -0.87900
H1177       H  0.87768692  0.35180571  0.37936462     0.36200
H1178       H  0.90200641  0.32629073  0.85739012     0.41300
H1179       H  0.76470283  0.23420645  0.47721666     0.41000
H1180       H  0.79345577  0.21215069  0.50817617     0.35800
N1181       N  0.89818537  0.31595832  0.50301640    -0.03000
C1182       C  0.90107602  0.29633459  0.96927421    -0.00500
C1183       C  0.93600000  0.29815333  0.94575077    -0.23300
C1184       C  0.95647119  0.32127692  0.96158791    -0.23500
C1185       C  0.93220540  0.33229235  0.49786452    -0.00600
H1186       H  0.94441191  0.28719574  0.91686153     0.13200
H1187       H  0.98387962  0.33167250  0.94733852     0.13300
N1188       N  0.61855468  0.36658211  0.50370525    -0.03000
C1189       C  0.64821151  0.36783256  0.52438191    -0.00500
C1190       C  0.65784040  0.40230449  0.52671364    -0.23300
C1191       C  0.63188279  0.42361245  0.50999016    -0.23500
C1192       C  0.60690369  0.40171944  0.49687573    -0.00600
H1193       H  0.67746115  0.41025996  0.54570982     0.13200
H1194       H  0.62890607  0.45107261  0.51457601     0.13300
N1195       N  0.83629819  0.02121446  0.53697171    -0.03000
C1196       C  0.81372813  0.01588479  0.57574078    -0.00500
C1197       C  0.81519142  0.98092205  0.59749856    -0.23300
C1198       C  0.84033821  0.96418490  0.57249870    -0.23500
C1199       C  0.85410616  0.98942298  0.53612163    -0.00600
H1200       H  0.80313468  0.97023670  0.63058845     0.13200
H1201       H  0.85138874  0.93798029  0.58287624     0.13300
N1202       N  0.00210704  0.39896522  0.99813455    -0.36200
N1203       N  0.53162609  0.46423734  0.51547853    -0.56700
N1204       N  0.95941978  0.50105752  0.51468533    -0.36200
N1205       N  0.92809454  0.42978707  0.01083383    -0.56700
C1206       C  0.53811117  0.38889476  0.00395589     0.27400
C1207       C  0.97922618  0.37063090  0.01676521     0.27400
C1208       C  0.47650578  0.01995353  0.53604586     0.27400
C1209       C  0.92236072  0.00501204  0.52437740     0.27400
C1210       C  0.56014532  0.45154858  0.49090206     0.36000
C1211       C  0.53776071  0.50010672  0.51089331     0.36000
C1212       C  0.92117171  0.39772150  0.99987163     0.36000
C1213       C  0.90009893  0.45151021  0.00055160     0.36000
C1214       C  0.03467886  0.35658957  0.03321045    -0.21500
C1215       C  0.99882300  0.34359213  0.03830151    -0.21500
C1216       C  0.45206915  0.03888538  0.56040161    -0.21500
C1217       C  0.91865300  0.03064363  0.55065558    -0.21500
C1218       C  0.58346033  0.48004595  0.46889099    -0.22500
C1219       C  0.56966142  0.51071490  0.48232426    -0.22500
C1220       C  0.88909301  0.39933939  0.98166029    -0.22500
C1221       C  0.87546444  0.43310207  0.98283062    -0.22500
C1222       C  0.56865028  0.41331174  0.99092810    -0.17900
C1223       C  0.94299380  0.36696349  0.00820801    -0.17900
C1224       C  0.89550963  0.98335107  0.01900329    -0.17900
C1225       C  0.51493724  0.52232630  0.53375537    -0.17900
H1226       H  0.05621243  0.34389717  0.04921412     0.15000
H1227       H  0.98818342  0.31753012  0.05619155     0.15000
H1228       H  0.45876057  0.05787989  0.57986107     0.15000
H1229       H  0.89352632  0.04069022  0.56564037     0.15000
H1230       H  0.60864120  0.47860652  0.44692195     0.13300
H1231       H  0.58141621  0.53756866  0.47126998     0.13300
H1232       H  0.87636316  0.37844594  0.96936022     0.13300
H1233       H  0.84975860  0.93919371  0.98277447     0.13300
H1234       H  0.99548989  0.42176891  0.97684947     0.26600
H1235       H  0.97054476  0.48411305  0.49411045     0.26600
N1236       N  0.55838168  0.05944488  0.56792472    -0.03000
C1237       C  0.56359687  0.05915689  0.60962656    -0.00500
C1238       C  0.53971809  0.03407525  0.63743185    -0.23300
C1239       C  0.51500585  0.52229538  0.61323723    -0.23500
C1240       C  0.53105772  0.03431028  0.56968849    -0.00600
H1241       H  0.53754630  0.02751856  0.67230313     0.13200
H1242       H  0.49325350  0.50200470  0.62505433     0.13300
O1243       O  0.80228248  0.25071634  0.84052956    -0.74900
O1244       O  0.76446504  0.22297009  0.90085318    -0.53800
C1245       C  0.79196500  0.24379278  0.88188040     0.78900
O1246       O  0.67015338  0.27364779  0.70674270    -0.59500
O1247       O  0.69750350  0.23760440  0.66204561    -0.52500
C1248       C  0.67885259  0.26493280  0.66938750     0.70900
O1249       O  0.66584412  0.27625034  0.84703345    -0.74000
O1250       O  0.68656947  0.23886983  0.90296156    -0.54600
C1251       C  0.67004355  0.26761252  0.88696007     0.76900
O1252       O  0.81073474  0.25560422  0.69639550    -0.59200
O1253       O  0.77579922  0.23071293  0.65521843    -0.52300
C1254       C  0.80283624  0.25107810  0.65961050     0.73500
Zr1255     Zr  0.78738605  0.23572413  0.77321431     2.54700
O1256       O  0.80067834  0.30023670  0.76082542    -0.79700
O1257       O  0.85244101  0.22206723  0.76904884    -0.93100
Zr1258     Zr  0.68021034  0.25217359  0.78133628     2.64700
O1259       O  0.69260046  0.31701394  0.76503126    -0.98100
O1260       O  0.61370160  0.25855688  0.79069883    -0.80200
O1261       O  0.73208250  0.24403523  0.81835070    -0.83500
O1262       O  0.73586176  0.24551870  0.73614493    -2.18200
O1263       O  0.77973798  0.10847233  0.72684556    -0.66900
O1264       O  0.75766766  0.14687759  0.67269699    -0.51500
C1265       C  0.77384760  0.11808729  0.68732412     0.71900
O1266       O  0.63858676  0.12868847  0.88293529    -0.59800
O1267       O  0.67417918  0.15434007  0.92294746    -0.51800
C1268       C  0.64744007  0.13396097  0.91904109     0.73700
O1269       O  0.64371421  0.13086040  0.73899109    -0.71200
O1270       O  0.68152180  0.16029196  0.67905359    -0.49900
C1271       C  0.65447784  0.13837002  0.69770462     0.75000
O1272       O  0.78170566  0.10870153  0.86810797    -0.66500
O1273       O  0.75604805  0.14426705  0.91450340    -0.53700
C1274       C  0.77578450  0.11733113  0.90574727     0.73400
Zr1275     Zr  0.76718490  0.13040148  0.79551141     2.77500
O1276       O  0.75021764  0.06643209  0.81364950    -0.97300
O1277       O  0.83322563  0.12129615  0.78550380    -0.78100
Zr1278     Zr  0.66007534  0.14731126  0.80530798     2.70100
O1279       O  0.64817116  0.08251695  0.81882774    -0.79400
O1280       O  0.59471702  0.15997885  0.81124795    -0.98400
Zr1281     Zr  0.72075199  0.19039900  0.87181859     2.21500
Zr1282     Zr  0.72761243  0.19300466  0.70681893     2.11100
O1283       O  0.71512176  0.13916926  0.75975415    -2.47100
O1284       O  0.71206012  0.13794133  0.84211329    -0.79200
O1285       O  0.78058369  0.18376178  0.74235721    -0.71300
O1286       O  0.66787257  0.19930391  0.83543114    -2.32300
O1287       O  0.77636383  0.18215625  0.82565850    -2.28500
O1288       O  0.67098655  0.20054212  0.75154160    -0.73100
H1289       H  0.74049230  0.26666967  0.71366461     0.78900
H1290       H  0.64619049  0.20243684  0.85546991     0.80000
H1291       H  0.71153735  0.11863636  0.74660774     0.82200
H1292       H  0.79682243  0.17868355  0.84169524     0.79800
H1293       H  0.60658344  0.25667091  0.76238718     0.42800
H1294       H  0.58920954  0.17043385  0.83769101     0.41800
H1295       H  0.62099571  0.07976640  0.82344023     0.41500
H1296       H  0.77079076  0.05473816  0.82725959     0.39400
H1297       H  0.84221856  0.13421001  0.75572400     0.42600
H1298       H  0.85537709  0.20181942  0.75323314     0.37600
H1299       H  0.82724473  0.30223911  0.76266694     0.43500
H1300       H  0.71049769  0.32141702  0.73799408     0.39900
H1301       H  0.72936324  0.06439002  0.83762523     0.44800
H1302       H  0.85570807  0.21123920  0.79902376     0.43500
H1303       H  0.66951130  0.32753821  0.75647330     0.43700
H1304       H  0.59303542  0.18043692  0.78720793     0.44000
C1305       C  0.61560162  0.13754556  0.63865436    -0.25900
C1306       C  0.63503646  0.11881749  0.67044153    -0.14000
C1307       C  0.63420459  0.08082817  0.67796451     0.36700
C1308       C  0.61247608  0.06236732  0.65558875    -0.25300
C1309       C  0.59127481  0.08078932  0.62552871    -0.14600
C1310       C  0.59330247  0.11894240  0.61654191     0.37800
N1311       N  0.57151426  0.13869246  0.58665570    -0.88800
H1312       H  0.61635462  0.16673054  0.63265376     0.18900
H1313       H  0.61122256  0.03317585  0.66259084     0.18900
N1314       N  0.65511965  0.06107993  0.70892646    -0.87900
H1315       H  0.57599420  0.16641878  0.58374557     0.36200
H1316       H  0.54380979  0.13319612  0.59958244     0.41300
H1317       H  0.68298875  0.06718668  0.69738846     0.41000
H1318       H  0.65144500  0.03334282  0.71101486     0.35800
C1319       C  0.61836334  0.07777242  0.52443694    -0.25900
C1320       C  0.57996014  0.08022195  0.53002500    -0.14000
C1321       C  0.56400457  0.10145842  0.00118855     0.36700
C1322       C  0.58656719  0.11875182  0.96358868    -0.25300
C1323       C  0.62488812  0.11542951  0.95909762    -0.14600
C1324       C  0.64087353  0.09448610  0.99297957     0.37800
N1325       N  0.67983777  0.08999526  0.99021654    -0.88800
H1326       H  0.63123082  0.05973451  0.54819721     0.18900
H1327       H  0.57418699  0.13531957  0.93813332     0.18900
N1328       N  0.52515066  0.10669612  0.00649445    -0.87900
H1329       H  0.69265197  0.11505184  0.98822968     0.36200
H1330       H  0.68928291  0.08010732  0.96213905     0.41300
H1331       H  0.51382144  0.10151567  0.47936723     0.41000
H1332       H  0.52081512  0.13426963  0.00436212     0.35800
C1333       C  0.76226250  0.08855325  0.62654556    -0.25900
C1334       C  0.78532400  0.09378030  0.65665268    -0.14000
C1335       C  0.81830077  0.07494091  0.65785004     0.36700
C1336       C  0.82701300  0.05060837  0.62990555    -0.25300
C1337       C  0.80370737  0.04475063  0.60049891    -0.14600
C1338       C  0.77080248  0.06393505  0.59876251     0.37800
N1339       N  0.74536466  0.05891618  0.56995721    -0.88800
H1340       H  0.73675701  0.10287429  0.62553568     0.18900
H1341       H  0.85193768  0.03545519  0.63166766     0.18900
N1342       N  0.84287187  0.08064759  0.68731447    -0.87900
H1343       H  0.72061532  0.04857974  0.58891403     0.36200
H1344       H  0.75444819  0.03986793  0.55121001     0.41300
H1345       H  0.85271536  0.10736295  0.67832094     0.41000
H1346       H  0.86582376  0.06446996  0.68427658     0.35800
C1347       C  0.82806790  0.08316872  0.00172562    -0.25900
C1348       C  0.82956429  0.04591518  0.00164005    -0.14000
C1349       C  0.81319425  0.03294849  0.96977446     0.36700
C1350       C  0.79623097  0.05669476  0.93934317    -0.25300
C1351       C  0.79337107  0.09365204  0.94040434    -0.14600
C1352       C  0.80958368  0.10690766  0.97227445     0.37800
N1353       N  0.80740302  0.14434917  0.97473974    -0.88800
H1354       H  0.83983779  0.09348450  0.02641218     0.18900
H1355       H  0.78403322  0.04571717  0.91537502     0.18900
N1356       N  0.81099598  0.99718695  0.46480230    -0.87900
H1357       H  0.82216358  0.15009171  0.99844516     0.36200
H1358       H  0.77984455  0.14907452  0.98529243     0.41300
H1359       H  0.82417193  0.99447723  0.43417651     0.41000
H1360       H  0.78358443  0.98839207  0.46786253     0.35800
C1361       C  0.63093867  0.33528374  0.59850919    -0.25900
C1362       C  0.65518272  0.33918888  0.55946337    -0.14000
C1363       C  0.68623605  0.31777486  0.55596617     0.36700
C1364       C  0.69248349  0.29250792  0.59184427    -0.25300
C1365       C  0.66869325  0.28902297  0.63146638    -0.14600
C1366       C  0.63725091  0.31012749  0.63448238     0.37800
N1367       N  0.61156016  0.30587566  0.67369814    -0.88800
H1368       H  0.60703526  0.35201275  0.60098655     0.18900
H1369       H  0.71676811  0.27639440  0.58910737     0.18900
N1370       N  0.71194231  0.32159639  0.51680666    -0.87900
H1371       H  0.58575658  0.29911431  0.66685356     0.36200
H1372       H  0.60963807  0.33069965  0.68372106     0.41300
H1373       H  0.72243618  0.34810536  0.50900840     0.41000
H1374       H  0.69788014  0.31706572  0.49200297     0.35800
C1375       C  0.63930215  0.27986693  0.95876984    -0.25900
C1376       C  0.65419567  0.29309985  0.91564033    -0.14000
C1377       C  0.65222612  0.33065830  0.89967162     0.36700
C1378       C  0.63635793  0.35368567  0.92725051    -0.25300
C1379       C  0.62320421  0.34095627  0.97132095    -0.14600
C1380       C  0.62185214  0.30321224  0.48719566     0.37800
N1381       N  0.60700430  0.28485197  0.52997592    -0.88800
H1382       H  0.63961051  0.25116881  0.97128760     0.18900
H1383       H  0.63716614  0.38245758  0.91507817     0.18900
N1384       N  0.66799195  0.34578551  0.85589187    -0.87900
H1385       H  0.62844031  0.27190460  0.54436053     0.36200
H1386       H  0.59610727  0.30258619  0.54926003     0.41300
H1387       H  0.69640831  0.34222310  0.85313032     0.41000
H1388       H  0.66420253  0.37356641  0.84904468     0.35800
C1389       C  0.81200587  0.28753595  0.58330955    -0.25900
C1390       C  0.82704897  0.27094937  0.62004638    -0.14000
C1391       C  0.86544259  0.27486400  0.61928318     0.36700
C1392       C  0.88804186  0.29226013  0.58142881    -0.25300
C1393       C  0.87339528  0.30690591  0.54381206    -0.14600
C1394       C  0.83467192  0.30610241  0.54578213     0.37800
N1395       N  0.81821191  0.32438806  0.50999588    -0.88800
H1396       H  0.78251341  0.28642183  0.58382898     0.18900
H1397       H  0.91759055  0.29264522  0.58076463     0.18900
N1398       N  0.88199175  0.25984848  0.65642358    -0.87900
H1399       H  0.80159176  0.34430978  0.52074624     0.36200
H1400       H  0.80087497  0.30608576  0.50107058     0.41300
H1401       H  0.89585206  0.28069350  0.66553988     0.41000
H1402       H  0.90144618  0.24140759  0.64748429     0.35800
C1403       C  0.83838454  0.28955931  0.88745380    -0.25900
C1404       C  0.81452693  0.26060290  0.90855466    -0.14000
C1405       C  0.81515717  0.24717088  0.95320629     0.36700
C1406       C  0.84348198  0.25902299  0.97327554    -0.25300
C1407       C  0.86883769  0.28618229  0.95067189    -0.14600
C1408       C  0.86477469  0.30280338  0.90824423     0.37800
N1409       N  0.88799326  0.33298525  0.88575838    -0.88800
H1410       H  0.83717358  0.30177340  0.85407830     0.18900
H1411       H  0.84592582  0.24691910  0.00634540     0.18900
N1412       N  0.78763519  0.22147008  0.97786292    -0.87900
H1413       H  0.87120511  0.35463885  0.87707856     0.36200
H1414       H  0.90852827  0.32286318  0.36106268     0.41300
H1415       H  0.76247284  0.23443320  0.97950689     0.41000
H1416       H  0.79267483  0.21401951  0.00976332     0.35800
N1417       N  0.90154143  0.81545132  0.00267098    -0.03000
C1418       C  0.89945219  0.79750981  0.46876008    -0.00500
C1419       C  0.93414265  0.80122657  0.44462002    -0.23300
C1420       C  0.95421350  0.82303770  0.46260489    -0.23500
C1421       C  0.93582911  0.83152547  0.99649950    -0.00600
H1422       H  0.94255555  0.79251517  0.41421401     0.13200
H1423       H  0.98123799  0.83466775  0.44865646     0.13300
N1424       N  0.61781080  0.86633809  0.00452860    -0.03000
C1425       C  0.64811060  0.86711492  0.02426893    -0.00500
C1426       C  0.65724039  0.90128212  0.02841142    -0.23300
C1427       C  0.63047941  0.92265245  0.01376599    -0.23500
C1428       C  0.60590583  0.90136550  0.99916653    -0.00600
H1429       H  0.67709037  0.90865593  0.04749573     0.13200
H1430       H  0.62708016  0.94962852  0.02000045     0.13300
N1431       N  0.83598230  0.51982044  0.03865663    -0.03000
C1432       C  0.81320495  0.51348290  0.07723851    -0.00500
C1433       C  0.81416552  0.47797035  0.09735876    -0.23300
C1434       C  0.83923615  0.46188366  0.07144431    -0.23500
C1435       C  0.85353202  0.48808040  0.03628638    -0.00600
H1436       H  0.80182028  0.46632801  0.13005279     0.13200
H1437       H  0.85002301  0.43537265  0.08069124     0.13300
N1438       N  0.99935443  0.89673198  0.50375104    -0.36200
N1439       N  0.53127447  0.96486416  0.01328784    -0.56700
N1440       N  0.96149307  0.99863919  0.01752275    -0.36200
N1441       N  0.92667106  0.92909792  0.51258991    -0.56700
C1442       C  0.53476401  0.88975683  0.50862358     0.27400
C1443       C  0.97599781  0.86866110  0.52198547     0.27400
C1444       C  0.47742885  0.51662049  0.03910717     0.27400
C1445       C  0.92163593  0.50367068  0.02754689     0.27400
C1446       C  0.56030050  0.95184288  0.98992559     0.36000
C1447       C  0.53861625  0.00022454  0.01118774     0.36000
C1448       C  0.91858299  0.89642398  0.50385866     0.36000
C1449       C  0.89907012  0.95108181  0.50162094     0.36000
C1450       C  0.03099075  0.85352346  0.53889169    -0.21500
C1451       C  0.99504195  0.84107973  0.54335684    -0.21500
C1452       C  0.45286088  0.53582090  0.06278464    -0.21500
C1453       C  0.91725121  0.52699016  0.05667726    -0.21500
C1454       C  0.58514271  0.97988981  0.97055701    -0.22500
C1455       C  0.57192705  0.01029403  0.98514923    -0.22500
C1456       C  0.88601312  0.89777337  0.48676215    -0.22500
C1457       C  0.87333517  0.93199040  0.48624201    -0.22500
C1458       C  0.56589549  0.91323078  0.49341980    -0.17900
C1459       C  0.93997622  0.86543959  0.51274919    -0.17900
C1460       C  0.89324585  0.48518443  0.51796766    -0.17900
C1461       C  0.51619510  0.02178767  0.03553492    -0.17900
H1462       H  0.05216150  0.84029008  0.55514873     0.15000
H1463       H  0.98396002  0.81501770  0.56074989     0.15000
H1464       H  0.45930483  0.55497675  0.08215557     0.15000
H1465       H  0.89186594  0.53533591  0.07316519     0.15000
H1466       H  0.61122581  0.97811409  0.95032595     0.13300
H1467       H  0.58518459  0.03660170  0.97660196     0.13300
H1468       H  0.87225239  0.87645196  0.47636605     0.13300
H1469       H  0.84517415  0.44035870  0.48514276     0.13300
H1470       H  0.99332839  0.91954762  0.48210342     0.26600
H1471       H  0.97310082  0.98177969  0.99707774     0.26600
N1472       N  0.55952467  0.55527797  0.07142963    -0.03000
C1473       C  0.56499003  0.55574222  0.11276128    -0.00500
C1474       C  0.54063289  0.53154069  0.14122469    -0.23300
C1475       C  0.51698351  0.01974496  0.11534836    -0.23500
C1476       C  0.53163687  0.53078634  0.07367594    -0.00600
H1477       H  0.53841818  0.52577050  0.17611987     0.13200
H1478       H  0.49591309  0.99871324  0.12672631     0.13300
O1479       O  0.80417571  0.75224719  0.33806718    -0.74900
O1480       O  0.76433048  0.72616790  0.39765008    -0.53800
C1481       C  0.79242599  0.74633500  0.37907362     0.78900
O1482       O  0.67376484  0.77357035  0.20388886    -0.59500
O1483       O  0.70104648  0.73690762  0.15983757    -0.52500
C1484       C  0.68230422  0.76428170  0.16684052     0.70900
O1485       O  0.66421983  0.77603900  0.34520627    -0.74000
O1486       O  0.68492658  0.73927821  0.40162811    -0.54600
C1487       C  0.66756001  0.76745351  0.38550843     0.76900
O1488       O  0.81629615  0.75165659  0.19595220    -0.59200
O1489       O  0.78012596  0.72842863  0.15471429    -0.52300
C1490       C  0.80812938  0.74745397  0.15921914     0.73500
Zr1491     Zr  0.78978403  0.73493451  0.27207790     2.54700
O1492       O  0.80280853  0.79957178  0.25370444    -0.79700
O1493       O  0.85430488  0.72026008  0.27209930    -0.93100
Zr1494     Zr  0.68304835  0.75322361  0.27872385     2.64700
O1495       O  0.69842469  0.81747812  0.26441663    -0.98100
O1496       O  0.61713324  0.76133531  0.28105169    -0.80200
O1497       O  0.73432663  0.74457562  0.31649446    -0.83500
O1498       O  0.73888234  0.74522021  0.23417069    -2.18200
O1499       O  0.78086817  0.60743954  0.22812886    -0.66900
O1500       O  0.76099219  0.64609232  0.17261817    -0.51500
C1501       C  0.77608688  0.61694469  0.18818900     0.71900
O1502       O  0.63825133  0.63050576  0.38010648    -0.59800
O1503       O  0.67351842  0.65576722  0.42081573    -0.51800
C1504       C  0.64671605  0.63563607  0.41640253     0.73700
O1505       O  0.64609282  0.63100644  0.23669173    -0.71200
O1506       O  0.68510936  0.65915564  0.17709052    -0.49900
C1507       C  0.65761323  0.63769915  0.19554792     0.75000
O1508       O  0.78204615  0.61032992  0.36975759    -0.66500
O1509       O  0.75574763  0.64625530  0.41535339    -0.53700
C1510       C  0.77567767  0.61925476  0.40725630     0.73400
Zr1511     Zr  0.76795429  0.62999121  0.29642525     2.77500
O1512       O  0.75096745  0.56597386  0.31505552    -0.97300
O1513       O  0.83373803  0.61941481  0.28733530    -0.78100
Zr1514     Zr  0.66113537  0.64874482  0.30296987     2.70100
O1515       O  0.64470015  0.58477952  0.31786981    -0.79400
O1516       O  0.59698978  0.66568221  0.30554885    -0.98400
Zr1517     Zr  0.72107395  0.69157374  0.37060070     2.21500
Zr1518     Zr  0.73048759  0.69234724  0.20561011     2.11100
O1519       O  0.71666403  0.63906956  0.25923604    -2.47100
O1520       O  0.71225247  0.63876005  0.34138455    -0.79200
O1521       O  0.78269945  0.68254075  0.24235102    -0.71300
O1522       O  0.66916330  0.70077934  0.33289257    -2.32300
O1523       O  0.77714818  0.68220428  0.32565371    -2.28500
O1524       O  0.67375738  0.70145807  0.24903593    -0.73100
H1525       H  0.74418201  0.76608771  0.21135030     0.78900
H1526       H  0.64728145  0.70424148  0.35245211     0.80000
H1527       H  0.71305717  0.61837973  0.24640790     0.82200
H1528       H  0.79737933  0.67889518  0.34208748     0.79800
H1529       H  0.61422139  0.78773240  0.27712056     0.42800
H1530       H  0.58310643  0.64602057  0.32682746     0.41800
H1531       H  0.66852842  0.57264554  0.31864269     0.41500
H1532       H  0.77396098  0.55366440  0.30680663     0.39400
H1533       H  0.84355444  0.63414485  0.25876906     0.42600
H1534       H  0.86788509  0.74348820  0.26043027     0.37600
H1535       H  0.78522090  0.80975424  0.27466199     0.43500
H1536       H  0.71351073  0.82229604  0.23539025     0.39900
H1537       H  0.74642036  0.56001083  0.34705143     0.44800
H1538       H  0.85995334  0.70598783  0.24897016     0.43500
H1539       H  0.67488888  0.82934541  0.26012889     0.43700
H1540       H  0.59495152  0.68671374  0.32008200     0.44000
C1541       C  0.61596014  0.63568239  0.13948028    -0.25900
C1542       C  0.63837623  0.61772335  0.16844723    -0.14000
C1543       C  0.63990424  0.57984088  0.17437848     0.36700
C1544       C  0.61698602  0.56051999  0.15417392    -0.25300
C1545       C  0.59291492  0.57812415  0.12716414    -0.14600
C1546       C  0.59310845  0.61626264  0.11888090     0.37800
N1547       N  0.56903292  0.63508628  0.09115895    -0.88800
H1548       H  0.61495429  0.66479030  0.13454437     0.18900
H1549       H  0.61725935  0.53134862  0.16033579     0.18900
N1550       N  0.66433586  0.56106558  0.20171382    -0.87900
H1551       H  0.57241833  0.66293116  0.08838826     0.36200
H1552       H  0.54194513  0.62833613  0.10589067     0.41300
H1553       H  0.69126620  0.56914565  0.18744901     0.41000
H1554       H  0.66224693  0.53330479  0.20288503     0.35800
C1555       C  0.61898964  0.57293815  0.02674573    -0.25900
C1556       C  0.58065721  0.57581078  0.03326137    -0.14000
C1557       C  0.56313039  0.60193801  0.49801469     0.36700
C1558       C  0.58565400  0.61989249  0.46068260    -0.25300
C1559       C  0.62399649  0.61667261  0.45608554    -0.14600
C1560       C  0.63997956  0.59474594  0.48919929     0.37800
N1561       N  0.67886685  0.58952869  0.48569296    -0.88800
H1562       H  0.63211289  0.55460833  0.04999130     0.18900
H1563       H  0.57323027  0.63678006  0.43550065     0.18900
N1564       N  0.52417937  0.60660971  0.50310162    -0.87900
H1565       H  0.69221861  0.61422098  0.48424913     0.36200
H1566       H  0.68771905  0.58013447  0.45711890     0.41300
H1567       H  0.51350748  0.59807825  0.98474626     0.41000
H1568       H  0.51936921  0.63406615  0.50133889     0.35800
C1569       C  0.76578321  0.58960639  0.12537004    -0.25900
C1570       C  0.78708584  0.59196342  0.15817195    -0.14000
C1571       C  0.81717527  0.56927614  0.16295064     0.36700
C1572       C  0.82497117  0.54451818  0.13537348    -0.25300
C1573       C  0.80335483  0.54163319  0.10319866    -0.14600
C1574       C  0.77294898  0.56415659  0.09848736     0.37800
N1575       N  0.74837085  0.56150122  0.06790633    -0.88800
H1576       H  0.74225310  0.60659968  0.12180452     0.18900
H1577       H  0.84799532  0.52692783  0.13931089     0.18900
N1578       N  0.83981561  0.57151709  0.19559151    -0.87900
H1579       H  0.72207973  0.55493759  0.08537145     0.36200
H1580       H  0.75520238  0.54040975  0.05154658     0.41300
H1581       H  0.85297992  0.59693030  0.18782058     0.41000
H1582       H  0.86057283  0.55262732  0.19506347     0.35800
C1583       C  0.82508568  0.58408600  0.50581081    -0.25900
C1584       C  0.82764494  0.54708461  0.50442809    -0.14000
C1585       C  0.81280776  0.53477563  0.47112871     0.36700
C1586       C  0.79652213  0.55881611  0.44043353    -0.25300
C1587       C  0.79268345  0.59549637  0.44248456    -0.14600
C1588       C  0.80707371  0.60810659  0.47606562     0.37800
N1589       N  0.80351972  0.64512033  0.48002763    -0.88800
H1590       H  0.83576824  0.59398873  0.53148495     0.18900
H1591       H  0.78553815  0.54816879  0.41541279     0.18900
N1592       N  0.80073811  0.49468292  0.97442442    -0.87900
H1593       H  0.81695728  0.65038731  0.50504509     0.36200
H1594       H  0.77556652  0.64903579  0.48944868     0.41300
H1595       H  0.81023077  0.48975229  0.94350601     0.41000
H1596       H  0.77263764  0.48783680  0.98163473     0.35800
C1597       C  0.63182369  0.83271565  0.09734853    -0.25900
C1598       C  0.65588115  0.83780351  0.05812851    -0.14000
C1599       C  0.68775999  0.81754461  0.05388943     0.36700
C1600       C  0.69502287  0.79225953  0.08931907    -0.25300
C1601       C  0.67131132  0.78769669  0.12906894    -0.14600
C1602       C  0.63893604  0.80739707  0.13265929     0.37800
N1603       N  0.61313564  0.80158767  0.17187331    -0.88800
H1604       H  0.60736352  0.84863733  0.10047090     0.18900
H1605       H  0.72003914  0.77719889  0.08626956     0.18900
N1606       N  0.71334658  0.82275349  0.01454962    -0.87900
H1607       H  0.58771096  0.79400979  0.16472413     0.36200
H1608       H  0.61004441  0.82603178  0.18268566     0.41300
H1609       H  0.72289346  0.84958185  0.00740683     0.41000
H1610       H  0.69933043  0.81820841  0.98969240     0.35800
C1611       C  0.63534027  0.77890082  0.45773886    -0.25900
C1612       C  0.65005017  0.79239020  0.41449914    -0.14000
C1613       C  0.64699433  0.82987173  0.39904648     0.36700
C1614       C  0.63176713  0.85282970  0.42715984    -0.25300
C1615       C  0.61906036  0.83987901  0.47133823    -0.14600
C1616       C  0.61795837  0.80271143  0.98920003     0.37800
N1617       N  0.60304959  0.78513567  0.03227380    -0.88800
H1618       H  0.63603739  0.75020689  0.47007372     0.18900
H1619       H  0.63252227  0.88159903  0.41493922     0.18900
N1620       N  0.66117345  0.84536331  0.35508785    -0.87900
H1621       H  0.62439721  0.77220489  0.04685580     0.36200
H1622       H  0.59241702  0.80342901  0.05091877     0.41300
H1623       H  0.68136514  0.86484419  0.35513881     0.41000
H1624       H  0.63971302  0.85828873  0.34071844     0.35800
C1625       C  0.81683819  0.78550252  0.08444788    -0.25900
C1626       C  0.83244850  0.76695453  0.11970793    -0.14000
C1627       C  0.87107207  0.76958277  0.11792296     0.36700
C1628       C  0.89322764  0.78804529  0.08021686    -0.25300
C1629       C  0.87778428  0.80491107  0.04398736    -0.14600
C1630       C  0.83898821  0.80509099  0.04731930     0.37800
N1631       N  0.82190099  0.82555312  0.01335418    -0.88800
H1632       H  0.78720251  0.78540622  0.08601883     0.18900
H1633       H  0.92288653  0.78766193  0.07845918     0.18900
N1634       N  0.88814266  0.75239103  0.15376599    -0.87900
H1635       H  0.80604365  0.84502197  0.02624143     0.36200
H1636       H  0.80380775  0.80844271  0.00360551     0.41300
H1637       H  0.90291494  0.77209656  0.16385293     0.41000
H1638       H  0.90688486  0.73405118  0.14297309     0.35800
C1639       C  0.83675584  0.79335110  0.38645378    -0.25900
C1640       C  0.81399365  0.76326877  0.40630348    -0.14000
C1641       C  0.81493780  0.74844750  0.45047003     0.36700
C1642       C  0.84311233  0.75968820  0.47095520    -0.25300
C1643       C  0.86743781  0.78802797  0.44967700    -0.14600
C1644       C  0.86256083  0.80642980  0.40819206     0.37800
N1645       N  0.88426572  0.83821173  0.38777630    -0.88800
H1646       H  0.83500689  0.80654168  0.35353709     0.18900
H1647       H  0.84612870  0.74631126  0.50339948     0.18900
N1648       N  0.78782925  0.72196147  0.47422659    -0.87900
H1649       H  0.86636611  0.85931685  0.38102914     0.36200
H1650       H  0.89791873  0.83421559  0.86160876     0.41300
H1651       H  0.76246539  0.73454432  0.47652513     0.41000
H1652       H  0.79293250  0.71385286  0.50601542     0.35800
N1653       N  0.89764837  0.81504000  0.50259978    -0.03000
C1654       C  0.90239211  0.79620507  0.97039237    -0.00500
C1655       C  0.93693689  0.79834430  0.94610000    -0.23300
C1656       C  0.95798786  0.82056575  0.96247476    -0.23500
C1657       C  0.93135229  0.83186132  0.49749944    -0.00600
H1658       H  0.94472700  0.78817006  0.91654115     0.13200
H1659       H  0.98529946  0.83098491  0.94783016     0.13300
N1660       N  0.61724747  0.86534776  0.50128872    -0.03000
C1661       C  0.64709847  0.86668091  0.52176115    -0.00500
C1662       C  0.65639375  0.90114999  0.52445229    -0.23300
C1663       C  0.63005438  0.92227406  0.50849607    -0.23500
C1664       C  0.60529335  0.90050706  0.49485467    -0.00600
H1665       H  0.67595187  0.90909559  0.54353998     0.13200
H1666       H  0.62675652  0.94947038  0.51396589     0.13300
N1667       N  0.83731839  0.52159467  0.54132926    -0.03000
C1668       C  0.81622204  0.51684101  0.58101482    -0.00500
C1669       C  0.81879915  0.48234865  0.60365926    -0.23300
C1670       C  0.84299942  0.46521400  0.57806484    -0.23500
C1671       C  0.85517902  0.48982229  0.54052230    -0.00600
H1672       H  0.80790841  0.47224860  0.63727962     0.13200
H1673       H  0.85463769  0.43930356  0.58848536     0.13300
N1674       N  0.00528100  0.89849319  0.00121104    -0.36200
N1675       N  0.53052066  0.96407336  0.51270615    -0.56700
N1676       N  0.95884510  0.00012797  0.51244501    -0.36200
N1677       N  0.93085058  0.92846552  0.01421144    -0.56700
C1678       C  0.53582540  0.89076194  0.00810758     0.27400
C1679       C  0.98306888  0.86902062  0.01714353     0.27400
C1680       C  0.47615381  0.52066145  0.53397539     0.27400
C1681       C  0.92295347  0.50592243  0.52654538     0.27400
C1682       C  0.55890937  0.95093109  0.48836269     0.36000
C1683       C  0.53742737  0.99974389  0.50896237     0.36000
C1684       C  0.92344305  0.89607473  0.00422250     0.36000
C1685       C  0.90202398  0.94971694  0.00565770     0.36000
C1686       C  0.03979847  0.85379555  0.02775420    -0.21500
C1687       C  0.00397532  0.84075910  0.03362616    -0.21500
C1688       C  0.45089824  0.54056202  0.55581884    -0.21500
C1689       C  0.91920260  0.53219300  0.55201714    -0.21500
C1690       C  0.58292415  0.97917369  0.46709184    -0.22500
C1691       C  0.56989417  0.00986852  0.48127078    -0.22500
C1692       C  0.89006262  0.89700273  0.98881209    -0.22500
C1693       C  0.87628718  0.93051319  0.99055706    -0.22500
C1694       C  0.56709372  0.91424730  0.99508071    -0.17900
C1695       C  0.94608829  0.86560673  0.01022071    -0.17900
C1696       C  0.89263377  0.48404465  0.01599491    -0.17900
C1697       C  0.51563652  0.02174591  0.53332600    -0.17900
H1698       H  0.06222383  0.83916732  0.03923633     0.15000
H1699       H  0.99435479  0.81350725  0.04805309     0.15000
H1700       H  0.45662698  0.56046351  0.57455604     0.15000
H1701       H  0.89415379  0.54249351  0.56681041     0.15000
H1702       H  0.60837847  0.97742012  0.44571055     0.13300
H1703       H  0.58265647  0.03643614  0.47164735     0.13300
H1704       H  0.87653388  0.87595351  0.97767911     0.13300
H1705       H  0.84969546  0.44254997  0.97314622     0.13300
H1706       H  0.99771508  0.92256535  0.98308768     0.26600
H1707       H  0.96991332  0.98345220  0.49146753     0.26600
N1708       N  0.55672793  0.56040945  0.56876410    -0.03000
C1709       C  0.56073783  0.56148304  0.61055918    -0.00500
C1710       C  0.53504722  0.53814737  0.63833054    -0.23300
C1711       C  0.51934389  0.01853988  0.61245528    -0.23500
C1712       C  0.52871388  0.53609668  0.57040407    -0.00600
H1713       H  0.53155732  0.53279227  0.67331039     0.13200
H1714       H  0.49852154  0.99732316  0.62423771     0.13300
O1715       O  0.80343605  0.75145060  0.84151373    -0.74900
O1716       O  0.76379714  0.72579271  0.90155246    -0.53800
C1717       C  0.79235466  0.74533251  0.88277745     0.78900
O1718       O  0.67301609  0.77782934  0.70617388    -0.59500
O1719       O  0.69836514  0.73993671  0.66265983    -0.52500
C1720       C  0.68095764  0.76817170  0.66919371     0.70900
O1721       O  0.66252304  0.77830408  0.84823076    -0.74000
O1722       O  0.68268749  0.74103281  0.90466608    -0.54600
C1723       C  0.66549870  0.76931179  0.88856525     0.76900
O1724       O  0.81314610  0.75193143  0.69716217    -0.59200
O1725       O  0.77586410  0.72893678  0.65678397    -0.52300
C1726       C  0.80434240  0.74753755  0.66061830     0.73500
Zr1727     Zr  0.78817356  0.73536882  0.77463875     2.54700
O1728       O  0.80695883  0.79879663  0.75907122    -0.79700
O1729       O  0.85139821  0.71607825  0.77458327    -0.93100
Zr1730     Zr  0.68196142  0.75648029  0.78138304     2.64700
O1731       O  0.70245431  0.81945369  0.76789245    -0.98100
O1732       O  0.61730904  0.77099248  0.78293405    -0.80200
O1733       O  0.73319233  0.74635842  0.81930130    -0.83500
O1734       O  0.73712330  0.74687917  0.73688307    -2.18200
O1735       O  0.77770698  0.60983289  0.73012776    -0.66900
O1736       O  0.75583217  0.64769954  0.67537688    -0.51500
C1737       C  0.77231652  0.61928525  0.69041196     0.71900
O1738       O  0.63557310  0.63308219  0.88378870    -0.59800
O1739       O  0.67193873  0.65711267  0.92437295    -0.51800
C1740       C  0.64494868  0.63717445  0.92006140     0.73700
O1741       O  0.64191447  0.63262873  0.74089134    -0.71200
O1742       O  0.67966864  0.66177366  0.68086688    -0.49900
C1743       C  0.65273121  0.63967479  0.69958393     0.75000
O1744       O  0.77583738  0.60943017  0.87230031    -0.66500
O1745       O  0.75233983  0.64655580  0.91784730    -0.53700
C1746       C  0.77058653  0.61856267  0.90964633     0.73400
Zr1747     Zr  0.76319879  0.63107987  0.79899086     2.77500
O1748       O  0.74335773  0.56783069  0.81674328    -0.97300
O1749       O  0.82840771  0.61796744  0.79203959    -0.78100
Zr1750     Zr  0.65693804  0.65214054  0.80626320     2.70100
O1751       O  0.63651780  0.58911009  0.82354612    -0.79400
O1752       O  0.59379788  0.67192360  0.80708428    -0.98400
Zr1753     Zr  0.71879057  0.69344620  0.87359540     2.21500
Zr1754     Zr  0.72626118  0.69424226  0.70867552     2.11100
O1755       O  0.71182866  0.64102607  0.76217135    -2.47100
O1756       O  0.70821958  0.64120445  0.84415825    -0.79200
O1757       O  0.77873607  0.68339921  0.74493877    -0.71300
O1758       O  0.66680922  0.70406050  0.83577763    -2.32300
O1759       O  0.77423177  0.68282293  0.82831884    -2.28500
O1760       O  0.67023270  0.70487748  0.75230503    -0.73100
H1761       H  0.74280563  0.76760402  0.71392840     0.78900
H1762       H  0.64504864  0.70790431  0.85528812     0.80000
H1763       H  0.70803273  0.62036904  0.74937177     0.82200
H1764       H  0.79444019  0.67870406  0.84471954     0.79800
H1765       H  0.61759107  0.79699165  0.77013575     0.42800
H1766       H  0.58801207  0.68161494  0.83403537     0.41800
H1767       H  0.60952369  0.58967754  0.83207314     0.41500
H1768       H  0.76213283  0.55541911  0.83304139     0.39400
H1769       H  0.82912076  0.59189133  0.80405777     0.42600
H1770       H  0.86593003  0.73303624  0.75045361     0.37600
H1771       H  0.78637127  0.81137809  0.74641532     0.43500
H1772       H  0.72050197  0.82033894  0.78792924     0.39900
H1773       H  0.72100802  0.56695621  0.83855496     0.44800
H1774       H  0.85178994  0.69286079  0.76443428     0.43500
H1775       H  0.71743009  0.82367163  0.73881224     0.43700
H1776       H  0.59530625  0.69337635  0.78359411     0.44000
C1777       C  0.61663724  0.63850681  0.63780992    -0.25900
C1778       C  0.63316022  0.61982574  0.67238570    -0.14000
C1779       C  0.62915598  0.58188619  0.68250932     0.36700
C1780       C  0.60748539  0.56374840  0.65965604    -0.25300
C1781       C  0.58903007  0.58234001  0.62681766    -0.14600
C1782       C  0.59409032  0.62028866  0.61546826     0.37800
N1783       N  0.57503101  0.64041925  0.58291737    -0.88800
H1784       H  0.61970116  0.66760065  0.62976830     0.18900
H1785       H  0.60395303  0.53471368  0.66857436     0.18900
N1786       N  0.64677011  0.56185100  0.71655910    -0.87900
H1787       H  0.58147154  0.66793827  0.57852559     0.36200
H1788       H  0.54680990  0.63719883  0.59422115     0.41300
H1789       H  0.67521033  0.56547312  0.70704519     0.41000
H1790       H  0.64094043  0.53425682  0.72036016     0.35800
C1791       C  0.61737172  0.57647941  0.52598271    -0.25900
C1792       C  0.57909481  0.57976774  0.53065493    -0.14000
C1793       C  0.56358110  0.59965554  0.00326714     0.36700
C1794       C  0.58500190  0.61951082  0.96626440    -0.25300
C1795       C  0.62341600  0.61672015  0.95973878    -0.14600
C1796       C  0.64057164  0.59333372  0.99058744     0.37800
N1797       N  0.67963146  0.58899401  0.98546167    -0.88800
H1798       H  0.62963189  0.55918606  0.55094496     0.18900
H1799       H  0.57169512  0.63756868  0.94292674     0.18900
N1800       N  0.52466497  0.60425501  0.01095109    -0.87900
H1801       H  0.69245048  0.61361168  0.98569635     0.36200
H1802       H  0.68817118  0.58150851  0.95563671     0.41300
H1803       H  0.51423002  0.59855736  0.47713689     0.41000
H1804       H  0.52005258  0.63139814  0.01193152     0.35800
C1805       C  0.76224498  0.58874170  0.63010621    -0.25900
C1806       C  0.78500774  0.59531205  0.65989537    -0.14000
C1807       C  0.81891411  0.57814973  0.66092090     0.36700
C1808       C  0.82875561  0.55378556  0.63329692    -0.25300
C1809       C  0.80551577  0.54622010  0.60459280    -0.14600
C1810       C  0.77179933  0.56395090  0.60285116     0.37800
N1811       N  0.74644465  0.55710765  0.57473573    -0.88800
H1812       H  0.73609597  0.60191561  0.62919089     0.18900
H1813       H  0.85439811  0.53981480  0.63493066     0.18900
N1814       N  0.84315820  0.58548437  0.69001303    -0.87900
H1815       H  0.72219521  0.54602794  0.59421275     0.36200
H1816       H  0.75626026  0.53802609  0.55636646     0.41300
H1817       H  0.85164717  0.61259049  0.68073321     0.41000
H1818       H  0.86693361  0.57043058  0.68687902     0.35800
C1819       C  0.82579935  0.58221482  0.00218830    -0.25900
C1820       C  0.82506470  0.54494240  0.00240599    -0.14000
C1821       C  0.80501357  0.53248177  0.97319615     0.36700
C1822       C  0.78729371  0.55687776  0.94423514    -0.25300
C1823       C  0.78742600  0.59408989  0.94430062    -0.14600
C1824       C  0.80671419  0.60668231  0.97417911     0.37800
N1825       N  0.80678657  0.64416055  0.97626061    -0.88800
H1826       H  0.83973150  0.59195750  0.02567493     0.18900
H1827       H  0.77249364  0.54635922  0.92198538     0.18900
N1828       N  0.81220653  0.49731043  0.46952779    -0.87900
H1829       H  0.82338013  0.64929989  0.99856537     0.36200
H1830       H  0.77990094  0.64976504  0.98862754     0.41300
H1831       H  0.82573715  0.49424483  0.43919386     0.41000
H1832       H  0.78478361  0.48866317  0.47221863     0.35800
C1833       C  0.63097235  0.83536315  0.59659178    -0.25900
C1834       C  0.65443248  0.83828467  0.55708570    -0.14000
C1835       C  0.68607555  0.81756769  0.55404884     0.36700
C1836       C  0.69358551  0.79395217  0.59078930    -0.25300
C1837       C  0.67055469  0.79159031  0.63081372    -0.14600
C1838       C  0.63869306  0.81213012  0.63344912     0.37800
N1839       N  0.61396914  0.80926460  0.67325650    -0.88800
H1840       H  0.60681151  0.85176411  0.59889183     0.18900
H1841       H  0.71817088  0.77821696  0.58832817     0.18900
N1842       N  0.71115138  0.82053979  0.51448847    -0.87900
H1843       H  0.58798950  0.80131727  0.66809002     0.36200
H1844       H  0.61189579  0.83482540  0.68134261     0.41300
H1845       H  0.72092636  0.84724453  0.50498420     0.41000
H1846       H  0.69672266  0.81442652  0.49071336     0.35800
C1847       C  0.63307371  0.78017166  0.96073243    -0.25900
C1848       C  0.64783060  0.79393696  0.91760656    -0.14000
C1849       C  0.64491568  0.83144347  0.90234820     0.36700
C1850       C  0.62989647  0.85420055  0.93061870    -0.25300
C1851       C  0.61778429  0.84106526  0.97478607    -0.14600
C1852       C  0.61977611  0.80155290  0.48596792     0.37800
N1853       N  0.60504277  0.78409140  0.52915769    -0.88800
H1854       H  0.63354908  0.75141769  0.97280020     0.18900
H1855       H  0.63087160  0.88301608  0.91865400     0.18900
N1856       N  0.65931783  0.84720083  0.85854637    -0.87900
H1857       H  0.62651645  0.77138888  0.54370770     0.36200
H1858       H  0.59438880  0.80243041  0.54775904     0.41300
H1859       H  0.67964283  0.86645376  0.85894346     0.41000
H1860       H  0.63801101  0.86043498  0.84417540     0.35800
C1861       C  0.81328687  0.78730682  0.58656030    -0.25900
C1862       C  0.82862381  0.76583299  0.62029586    -0.14000
C1863       C  0.86728377  0.76325509  0.61573102     0.36700
C1864       C  0.88958741  0.78123245  0.57778625    -0.25300
C1865       C  0.87429461  0.80226832  0.54374555    -0.14600
C1866       C  0.83569927  0.80570584  0.54877507     0.37800
N1867       N  0.81911760  0.82787744  0.51560484    -0.88800
H1868       H  0.78375849  0.79025406  0.58977718     0.18900
H1869       H  0.91905834  0.77766198  0.57417353     0.18900
N1870       N  0.88398574  0.74124864  0.64896338    -0.87900
H1871       H  0.80494881  0.84801451  0.52912021     0.36200
H1872       H  0.79973080  0.81209370  0.50589365     0.41300
H1873       H  0.90254813  0.75748096  0.65933363     0.41000
H1874       H  0.89892396  0.72154861  0.63539830     0.35800
C1875       C  0.83727504  0.79214132  0.89028254    -0.25900
C1876       C  0.81518751  0.76148543  0.90984403    -0.14000
C1877       C  0.81769714  0.74580801  0.95345131     0.36700
C1878       C  0.84662173  0.75685326  0.97317367    -0.25300
C1879       C  0.86987362  0.78619683  0.95221202    -0.14600
C1880       C  0.86352160  0.80521214  0.91161986     0.37800
N1881       N  0.88420733  0.83770078  0.89167739    -0.88800
H1882       H  0.83445028  0.80598312  0.85794367     0.18900
H1883       H  0.85067213  0.74298040  0.00507757     0.18900
N1884       N  0.79110493  0.71903803  0.97761299    -0.87900
H1885       H  0.86564927  0.85845311  0.88642515     0.36200
H1886       H  0.89852702  0.83369580  0.35841209     0.41300
H1887       H  0.76572556  0.73147830  0.98120553     0.41000
H1888       H  0.79715577  0.71048014  0.00894709     0.35800
loop_ 
_geom_bond_atom_site_label_1 
_geom_bond_atom_site_label_2 
_geom_bond_distance 
_geom_bond_site_symmetry_2 
_ccdc_geom_bond_type 
N1            C5   1.363   1_554  A
N1          C238   1.360   1_554  A
N1          C213   1.451       .  S
C2          N237   1.360       .  A
C2            C3   1.380       .  A
C2          C227   1.474       .  S
C3            C4   1.363       .  A
C3            H6   1.083       .  S
C4          C241   1.384       .  A
C4            H7   1.083       .  S
C5          C240   1.384       .  A
C5          C279   1.494   1_556  S
N8           C12   1.386   1_554  A
N8            C9   1.362       .  A
N8          C435   1.470   1_554  S
C9           C10   1.369       .  A
C9          C182   1.457       .  S
C10          C11   1.352       .  A
C10          H13   1.083       .  S
C11          C12   1.393   1_554  A
C11          H14   1.079       .  S
C12         C278   1.527       .  S
N15          C19   1.370   1_545  A
N15          C16   1.360       .  A
N15         C404   1.454       .  S
C16          C17   1.378   1_545  A
C16         C157   1.480       .  S
C17          C18   1.366       .  A
C17          H20   1.082       .  S
C18          C19   1.386       .  A
C18          H21   1.083       .  S
C19         C280   1.505       .  S
N22          C27   1.350       .  A
N22         C970   1.355       .  A
N22          H54   1.044       .  S
N23          C30   1.357   1_554  A
N23          C31   1.351       .  A
N24         C501   1.359       .  A
N24        C1444   1.360       .  A
N24          H55   1.042   1_554  S
N25          C32   1.358       .  A
N25          C33   1.356       .  A
C26         N966   1.353       .  A
C26          C42   1.411       .  A
C26         C978   1.380       .  A
C27          C43   1.410       .  A
C27          C35   1.384       .  A
C28        N1440   1.359   1_545  A
C28          C36   1.385       .  A
C28         C517   1.425   1_655  A
C29         N496   1.360       .  A
C29          C37   1.388       .  A
C29         C280   1.428   1_545  A
C30          C38   1.388       .  A
C30         C278   1.430       .  A
C31          C45   1.412       .  A
C31          C39   1.383   1_554  A
C32          C40   1.383       .  A
C32          C43   1.418       .  A
C33          C41   1.386       .  A
C33         C516   1.422       .  A
C34          C35   1.379       .  A
C34         C970   1.380       .  A
C34          H46   1.067       .  S
C35          H47   1.082       .  S
C36         C981   1.378       .  A
C36          H48   1.082       .  S
C37         C980   1.377       .  A
C37          H49   1.078       .  S
C38          C39   1.381       .  A
C38          H50   1.083       .  S
C39          H51   1.077       .  S
C40          C41   1.372       .  A
C40          H52   1.079       .  S
C41         H525   1.077       .  S
C42         C266   1.427       .  A
C42         C248   1.519       .  S
C43         C241   1.494       .  S
C44         C265   1.429   1_565  A
C44         C505   1.419       .  A
C44         C255   1.505       .  S
C45         C500   1.428   1_455  A
C45         C532   1.513       .  S
H53         C513   1.079       .  S
N56          C60   1.366       .  A
N56          C57   1.362       .  A
N56         C140   1.432       .  S
C57          C58   1.380       .  A
C57         C129   1.500       .  S
C58         C531   1.379       .  A
C58          H61   1.082       .  S
C59         C530   1.376       .  A
C59         C532   1.384       .  A
C59          H62   1.082   1_455  S
C60         C531   1.386       .  A
C60         C517   1.512       .  S
O63         Zr75   2.439       .  S
O63          C65   1.290       .  A
O64        Zr101   2.412       .  S
O64          C65   1.284       .  A
C65         C224   1.484       .  S
O66         Zr78   2.448       .  S
O66          C68   1.290       .  A
O67        Zr102   2.379       .  S
O67          C68   1.279       .  A
C68         C185   1.467       .  S
O69         Zr78   2.445       .  S
O69          C71   1.288       .  A
O70        Zr101   2.503       .  S
O70          C71   1.303       .  A
C71         C196   1.516       .  S
O72         Zr75   2.447       .  S
O72          C74   1.289       .  A
O73        Zr102   2.452       .  S
O73          C74   1.292       .  A
C74         C210   1.490       .  S
Zr75         O76   2.435       .  S
Zr75         O77   2.437       .  S
Zr75         O81   2.373       .  S
Zr75         O82   2.367       .  S
Zr75        O105   2.381       .  S
Zr75        O107   2.367       .  S
O76         H119   0.990       .  S
O77         H118   0.990       .  S
O77         H122   0.990       .  S
Zr78         O79   2.436       .  S
Zr78         O80   2.435       .  S
Zr78         O82   2.365       .  S
Zr78         O81   2.375       .  S
Zr78        O106   2.381       .  S
Zr78        O108   2.376       .  S
O79         H120   0.990       .  S
O79         H123   0.990       .  S
O80         H113   0.990       .  S
O81        Zr101   2.387       .  S
O82        Zr102   2.386       .  S
O82         H109   0.965       .  S
O83         Zr95   2.461       .  S
O83          C85   1.292       .  A
O84        Zr102   2.407       .  S
O84          C85   1.283       .  A
C85         C154   1.484       .  S
O86         Zr98   2.446       .  S
O86          C88   1.289       .  A
O87        Zr101   2.404       .  S
O87          C88   1.283       .  A
C88         C143   1.466       .  S
O89         Zr98   2.458       .  S
O89          C91   1.291       .  A
O90        Zr102   2.457       .  S
O90          C91   1.291       .  A
C91         C126   1.491       .  S
O92         Zr95   2.431       .  S
O92          C94   1.287       .  A
O93        Zr101   2.496       .  S
O93          C94   1.301       .  A
C94         C171   1.505       .  S
Zr95         O96   2.437       .  S
Zr95         O97   2.433       .  S
Zr95        O103   2.360       .  S
Zr95        O104   2.379       .  S
Zr95        O107   2.377       .  S
Zr95        O105   2.367       .  S
O96         H116   0.990       .  S
O96         H121   0.990       .  S
O97         H117   0.990       .  S
Zr98         O99   2.434       .  S
Zr98        O100   2.436       .  S
Zr98        O104   2.373       .  S
Zr98        O103   2.367       .  S
Zr98        O108   2.373       .  S
Zr98        O106   2.374       .  S
O99         H115   0.990       .  S
O100        H114   0.990       .  S
O100        H124   0.990       .  S
Zr101       O104   2.390       .  S
Zr101       O106   2.397       .  S
Zr101       O107   2.392       .  S
Zr102       O103   2.378       .  S
Zr102       O105   2.382       .  S
Zr102       O108   2.389       .  S
O103        H111   0.965       .  S
O106        H110   0.967       .  S
O107        H112   0.965       .  S
C125        C126   1.406       .  A
C125        C130   1.418       .  A
C125        H132   1.083       .  S
C126        C127   1.411       .  A
C127        C128   1.410       .  A
C127        N134   1.438       .  S
C128        C129   1.405       .  A
C128        H133   1.084       .  S
C129        C130   1.414       .  A
C130        N131   1.437       .  S
N131        H135   1.046       .  S
N131        H136   1.045       .  S
N134        H137   1.046       .  S
N134        H138   1.045       .  S
C139        C140   1.401       .  A
C139        C380   1.394   1_554  A
C139        H146   1.083       .  S
C140        C377   1.405       .  A
C141        C142   1.400       .  A
C141        C376   1.406       .  A
C141        N148   1.431       .  S
C142        C143   1.401       .  A
C142        H147   1.084       .  S
C143        C144   1.414       .  A
C144        C375   1.397       .  A
C144        N145   1.434       .  S
N145        H149   1.044       .  S
N145        H150   1.046       .  S
N148        H152   1.046       .  S
N148        H387   1.045       .  S
H151        N384   1.046   1_556  S
C153        C154   1.410       .  A
C153        C158   1.404       .  A
C153        H160   1.084       .  S
C154        C155   1.410       .  A
C155        C156   1.403       .  A
C155        N162   1.438       .  S
C156        C157   1.406       .  A
C156        H161   1.084       .  S
C157        C158   1.413       .  A
C158        N159   1.439       .  S
N159        H163   1.046       .  S
N159        H164   1.043       .  S
N162        H165   1.046       .  S
N162        H166   1.046       .  S
C167        C168   1.408       .  A
C167        C172   1.417       .  A
C167        H174   1.083       .  S
C168        N251   1.458       .  S
C168        C169   1.415       .  A
C169        C170   1.411       .  A
C169        N412   1.430   1_545  S
C170        C171   1.408       .  A
C170        H175   1.084       .  S
C171        C172   1.411       .  A
C172        N173   1.428       .  S
N173        H177   1.045       .  S
N173        H178   1.045       .  S
N176        C405   1.431   1_565  S
N176        H179   1.045       .  S
N176        H180   1.046       .  S
C181        C182   1.401       .  A
C181        C186   1.390       .  A
C181        H188   1.085       .  S
C182        C183   1.404       .  A
C183        C184   1.396       .  A
C183        N190   1.433       .  S
C184        C185   1.410       .  A
C184        H189   1.083       .  S
C185        C186   1.406       .  A
C186        N187   1.433       .  S
N187        H191   1.046       .  S
N187        H192   1.046       .  S
N190        H193   1.045       .  S
N190        H194   1.045   1_554  S
C195        C196   1.401       .  A
C195        C436   1.414       .  A
C195        H202   1.084       .  S
C196        C197   1.422       .  A
C197        C198   1.420       .  A
C197        N204   1.437       .  S
C198        C199   1.407       .  A
C198        H203   1.083       .  S
C199        N244   1.470       .  S
C199        C436   1.438       .  A
C200        C431   1.415       .  A
C200        C435   1.436       .  A
C200        N201   1.435   1_556  S
N201        H205   1.045       .  S
N201        H206   1.035       .  S
N204        H207   1.046       .  S
N204        H208   1.045       .  S
C209        C210   1.405       .  A
C209        C214   1.408       .  A
C209        H216   1.082       .  S
C210        C211   1.411       .  A
C211        C212   1.408       .  A
C211        N218   1.432       .  S
C212        C213   1.408       .  A
C212        H217   1.083       .  S
C213        C214   1.412       .  A
C214        N215   1.431       .  S
N215        H219   1.045       .  S
N215        H220   1.045       .  S
N218        H221   1.046       .  S
N218        H222   1.046       .  S
C223        C224   1.403       .  A
C223        C228   1.393       .  A
C223        H230   1.084       .  S
C224        C225   1.418       .  A
C225        C226   1.410       .  A
C225        N232   1.436       .  S
C226        C227   1.400       .  A
C226        H231   1.083       .  S
C227        C228   1.407       .  A
C228        N229   1.434       .  S
N229        H233   1.046       .  S
N229        H470   1.046       .  S
N232        H235   1.046       .  S
N232        H236   1.046       .  S
H234        N465   1.046       .  S
N237        C241   1.366       .  A
N237        C449   1.452       .  S
C238        C239   1.381       .  A
C238        C463   1.476       .  S
C239        C240   1.364       .  A
C239        H242   1.083       .  S
C240        H243   1.083       .  S
N244        C248   1.385       .  A
N244        C245   1.358       .  A
C245        C246   1.369       .  A
C245        C418   1.451       .  S
C246        C247   1.351       .  A
C246        H249   1.083       .  S
C247        C248   1.393       .  A
C247        H250   1.080       .  S
N251        C255   1.370   1_545  A
N251        C252   1.359       .  A
C252        C253   1.377   1_545  A
C252        C393   1.470       .  S
C253        C254   1.362       .  A
C253        H256   1.083       .  S
C254        C255   1.386       .  A
C254        H257   1.083       .  S
N258        C263   1.349   1_556  A
N258       C1206   1.356   1_556  A
N258        H290   1.045       .  S
N259        C266   1.356       .  A
N259        C267   1.352       .  A
N260        C737   1.360       .  A
N260       C1680   1.360       .  A
N260        H291   1.042       .  S
N261        C268   1.358       .  A
N261        C269   1.357       .  A
C262       N1202   1.355   1_554  A
C262       C1214   1.380       .  A
C262        C278   1.414   1_554  A
C263        C279   1.408       .  A
C263        C271   1.383       .  A
C264       N1676   1.362       .  A
C264        C272   1.386       .  A
C264        C753   1.430   1_655  A
C265        N732   1.361   1_545  A
C265        C273   1.388       .  A
C266        C274   1.387       .  A
C267        C281   1.413       .  A
C267        C275   1.382       .  A
C268        C276   1.383   1_554  A
C268        C279   1.419       .  A
C269        C277   1.387   1_554  A
C269        C752   1.424       .  A
C270       C1206   1.379       .  A
C270        C271   1.378       .  A
C270        H282   1.065       .  S
C271        H283   1.082       .  S
C272       C1217   1.381       .  A
C272        H284   1.082       .  S
C273       C1216   1.380       .  A
C273        H285   1.078       .  S
C274        C275   1.381       .  A
C274        H286   1.082       .  S
C275        H287   1.077       .  S
C276        C277   1.372       .  A
C276        H288   1.077       .  S
C277        H761   1.078       .  S
C280        C741   1.420       .  A
C281        C736   1.427   1_455  A
C281        C768   1.516       .  S
H289        C749   1.080       .  S
N292        C296   1.370       .  A
N292        C293   1.368       .  A
N292        C376   1.433       .  S
C293        C294   1.382       .  A
C293        C365   1.512       .  S
C294        C767   1.377       .  A
C294        H297   1.082       .  S
C295        C766   1.378       .  A
C295        C768   1.386       .  A
C295        H298   1.082   1_455  S
C296        C767   1.384       .  A
C296        C753   1.517       .  S
O299       Zr311   2.448       .  S
O299        C301   1.291       .  A
O300       Zr337   2.407       .  S
O300        C301   1.283       .  A
C301        C460   1.486       .  S
O302       Zr314   2.442       .  S
O302        C304   1.289       .  A
O303       Zr338   2.366       .  S
O303        C304   1.276       .  A
C304        C421   1.458       .  S
O305       Zr314   2.439       .  S
O305        C307   1.287       .  A
O306       Zr337   2.508       .  S
O306        C307   1.303       .  A
C307        C432   1.518       .  S
O308       Zr311   2.438       .  S
O308        C310   1.287       .  A
O309       Zr338   2.471       .  S
O309        C310   1.295       .  A
C310        C446   1.496       .  S
Zr311       O312   2.435       .  S
Zr311       O313   2.436       .  S
Zr311       O317   2.371       .  S
Zr311       O318   2.371       .  S
Zr311       O341   2.381       .  S
Zr311       O343   2.365       .  S
O312        H355   0.990       .  S
O313        H354   0.990       .  S
O313        H358   0.990       .  S
Zr314       O315   2.436       .  S
Zr314       O316   2.435       .  S
Zr314       O318   2.368       .  S
Zr314       O317   2.376       .  S
Zr314       O342   2.374       .  S
Zr314       O344   2.372       .  S
O315        H356   0.990       .  S
O315        H359   0.990       .  S
O316        H349   0.990       .  S
O317       Zr337   2.382       .  S
O318       Zr338   2.384       .  S
O318        H345   0.965       .  S
O319       Zr331   2.459       .  S
O319        C321   1.291       .  A
O320       Zr338   2.389       .  S
O320        C321   1.280       .  A
C321        C390   1.475       .  S
O322       Zr334   2.447       .  S
O322        C324   1.289       .  A
O323       Zr337   2.396       .  S
O323        C324   1.282       .  A
C324        C379   1.464       .  S
O325       Zr334   2.471       .  S
O325        C327   1.294       .  A
O326       Zr338   2.463       .  S
O326        C327   1.293       .  A
C327        C362   1.501       .  S
O328       Zr331   2.428       .  S
O328        C330   1.286       .  A
O329       Zr337   2.496       .  S
O329        C330   1.300       .  A
C330        C407   1.502       .  S
Zr331       O332   2.436       .  S
Zr331       O333   2.434       .  S
Zr331       O339   2.358       .  S
Zr331       O340   2.379       .  S
Zr331       O343   2.381       .  S
Zr331       O341   2.370       .  S
O332        H352   0.990       .  S
O332        H357   0.990       .  S
O333        H353   0.990       .  S
Zr334       O335   2.434       .  S
Zr334       O336   2.435       .  S
Zr334       O340   2.377       .  S
Zr334       O339   2.367       .  S
Zr334       O344   2.372       .  S
Zr334       O342   2.378       .  S
O335        H351   0.990       .  S
O336        H350   0.990       .  S
O336        H360   0.990       .  S
Zr337       O340   2.394       .  S
Zr337       O342   2.395       .  S
Zr337       O343   2.394       .  S
Zr338       O339   2.381       .  S
Zr338       O341   2.380       .  S
Zr338       O344   2.388       .  S
O339        H347   0.965       .  S
O342        H346   0.966       .  S
O343        H348   0.966       .  S
C361        C362   1.408       .  A
C361        C366   1.422       .  A
C361        H368   1.083       .  S
C362        C363   1.412       .  A
C363        C364   1.413       .  A
C363        N370   1.438       .  S
C364        C365   1.408       .  A
C364        H369   1.084       .  S
C365        C366   1.418       .  A
C366        N367   1.436       .  S
N367        H371   1.046       .  S
N367        H372   1.045       .  S
N370        H373   1.046       .  S
N370        H374   1.046       .  S
C375        C376   1.402       .  A
C375        H382   1.083       .  S
C377        C378   1.400   1_554  A
C377        N384   1.431       .  S
C378        C379   1.402       .  A
C378        H383   1.084       .  S
C379        C380   1.414       .  A
C380        N381   1.434       .  S
N381        H385   1.045       .  S
N381        H386   1.046       .  S
N384        H388   1.045       .  S
C389        C390   1.410       .  A
C389        C394   1.400       .  A
C389        H396   1.084       .  S
C390        C391   1.409       .  A
C391        C392   1.401       .  A
C391        N398   1.438       .  S
C392        C393   1.405       .  A
C392        H397   1.084       .  S
C393        C394   1.400       .  A
C394        N395   1.432       .  S
N395        H399   1.045       .  S
N395        H400   1.046       .  S
N398        H401   1.046       .  S
N398        H402   1.046       .  S
C403        C404   1.408   1_556  A
C403        C408   1.421       .  A
C403        H410   1.083   1_556  S
C404        C405   1.412   1_554  A
C405        C406   1.406       .  A
C406        C407   1.405       .  A
C406        H411   1.084       .  S
C407        C408   1.415       .  A
C408        N409   1.432       .  S
N409        H413   1.046       .  S
N409        H414   1.044       .  S
N412        H415   1.045       .  S
N412        H416   1.046       .  S
C417        C418   1.401       .  A
C417        C422   1.389       .  A
C417        H424   1.084       .  S
C418        C419   1.402       .  A
C419        C420   1.392       .  A
C419        N426   1.433       .  S
C420        C421   1.408       .  A
C420        H425   1.084       .  S
C421        C422   1.404       .  A
C422        N423   1.433       .  S
N423        H427   1.046       .  S
N423        H428   1.046       .  S
N426        H429   1.045       .  S
N426        H430   1.045       .  S
C431        C432   1.401       .  A
C431        H438   1.084       .  S
C432        C433   1.421       .  A
C433        C434   1.419       .  A
C433        N440   1.432       .  S
C434        C435   1.408       .  A
C434        H439   1.083       .  S
C436        N437   1.434       .  S
N437        H441   1.046       .  S
N437        H442   1.033       .  S
N440        H443   1.046       .  S
N440        H444   1.046       .  S
C445        C446   1.406       .  A
C445        C450   1.413       .  A
C445        H452   1.083       .  S
C446        C447   1.414       .  A
C447        C448   1.408       .  A
C447        N454   1.433       .  S
C448        C449   1.405       .  A
C448        H453   1.083       .  S
C449        C450   1.413       .  A
C450        N451   1.432       .  S
N451        H455   1.045       .  S
N451        H456   1.045       .  S
N454        H457   1.046       .  S
N454        H458   1.045       .  S
C459        C460   1.402       .  A
C459        C464   1.394       .  A
C459        H466   1.084       .  S
C460        C461   1.419       .  A
C461        C462   1.409       .  A
C461        N468   1.435       .  S
C462        C463   1.399       .  A
C462        H467   1.083   1_556  S
C463        C464   1.409       .  A
C464        N465   1.433       .  S
N465        H469   1.046       .  S
N468        H471   1.046       .  S
N468        H472   1.046   1_556  S
N473        C477   1.365   1_554  A
N473        C710   1.358   1_554  A
N473        C685   1.451       .  S
C474        N709   1.362       .  A
C474        C475   1.380       .  A
C474        C699   1.472       .  S
C475        C476   1.360       .  A
C475        H478   1.083       .  S
C476        C713   1.384       .  A
C476        H479   1.083       .  S
C477        C712   1.384       .  A
C477        C751   1.491   1_556  S
N480        C484   1.388       .  A
N480        C481   1.361   1_556  A
N480        C907   1.470       .  S
C481        C482   1.366       .  A
C481        C654   1.457       .  S
C482        C483   1.352   1_554  A
C482        H485   1.083       .  S
C483        C484   1.398       .  A
C483        H486   1.076   1_556  S
C484        C750   1.541       .  S
N487        C491   1.372       .  A
N487        C488   1.364       .  A
N487        C876   1.461       .  S
C488        C489   1.379       .  A
C488        C629   1.480       .  S
C489        C490   1.366       .  A
C489        H492   1.083       .  S
C490        C491   1.385       .  A
C490        H493   1.083       .  S
C491        C752   1.503       .  S
N494        C499   1.349       .  A
N494       C1442   1.356       .  A
N494        H526   1.045       .  S
N495        C502   1.359   1_554  A
N495        C503   1.353       .  A
N496        C972   1.361       .  A
N496        H527   1.043   1_544  S
N497        C504   1.357       .  A
N497        C505   1.355       .  A
C498       N1438   1.354   1_455  A
C498       C1450   1.381       .  A
C498        C514   1.415       .  A
C499        C515   1.409       .  A
C499        C507   1.384       .  A
C500        N968   1.360       .  A
C500        C508   1.387       .  A
C501        C752   1.428       .  A
C501        C509   1.389       .  A
C502        C750   1.433       .  A
C502        C510   1.388       .  A
C503        C517   1.412   1_565  A
C503        C511   1.382   1_564  A
C504        C512   1.385       .  A
C504        C515   1.417       .  A
C505        C513   1.386       .  A
C506       C1442   1.380       .  A
C506        C507   1.380       .  A
C506        H518   1.068       .  S
C507        H519   1.082       .  S
C508       C1453   1.380       .  A
C508        H520   1.082       .  S
C509       C1452   1.377       .  A
C509        H521   1.077       .  S
C510        C511   1.381   1_565  A
C510        H522   1.083       .  S
C511        H523   1.078       .  S
C512        C513   1.374       .  A
C512        H524   1.079       .  S
C514        C738   1.426       .  A
C514        C720   1.519       .  S
C515        C713   1.491       .  S
C516        C737   1.430       .  A
C516        C727   1.506       .  S
N528        C532   1.369       .  A
N528        C529   1.369       .  A
N528        C612   1.436       .  S
C529        C530   1.383       .  A
C529        C601   1.510       .  S
C530        H533   1.082       .  S
C531        H534   1.082   1_455  S
O535       Zr547   2.447       .  S
O535        C537   1.291       .  A
O536       Zr573   2.409       .  S
O536        C537   1.283       .  A
C537        C696   1.485       .  S
O538       Zr550   2.445       .  S
O538        C540   1.289       .  A
O539       Zr574   2.384       .  S
O539        C540   1.280       .  A
C540        C657   1.469       .  S
O541       Zr550   2.443       .  S
O541        C543   1.287       .  A
O542       Zr573   2.502       .  S
O542        C543   1.303       .  A
C543        C668   1.513       .  S
O544       Zr547   2.438       .  S
O544        C546   1.287       .  A
O545       Zr574   2.470       .  S
O545        C546   1.295       .  A
C546        C682   1.493       .  S
Zr547       O548   2.436       .  S
Zr547       O549   2.434       .  S
Zr547       O553   2.376       .  S
Zr547       O554   2.368       .  S
Zr547       O577   2.378       .  S
Zr547       O579   2.358       .  S
O548        H591   0.990       .  S
O549        H590   0.990       .  S
O549        H594   0.990       .  S
Zr550       O551   2.435       .  S
Zr550       O552   2.436       .  S
Zr550       O554   2.365       .  S
Zr550       O553   2.380       .  S
Zr550       O578   2.376       .  S
Zr550       O580   2.377       .  S
O551        H592   0.990       .  S
O551        H595   0.990       .  S
O552        H585   0.990       .  S
O553       Zr573   2.388       .  S
O554       Zr574   2.388       .  S
O554        H581   0.965       .  S
O555       Zr567   2.460       .  S
O555        C557   1.292       .  A
O556       Zr574   2.410       .  S
O556        C557   1.284       .  A
C557        C626   1.480       .  S
O558       Zr570   2.444       .  S
O558        C560   1.288       .  A
O559       Zr573   2.405       .  S
O559        C560   1.283       .  A
C560        C615   1.466       .  S
O561       Zr570   2.454       .  S
O561        C563   1.290       .  A
O562       Zr574   2.471       .  S
O562        C563   1.294       .  A
C563        C598   1.499       .  S
O564       Zr567   2.436       .  S
O564        C566   1.288       .  A
O565       Zr573   2.494       .  S
O565        C566   1.300       .  A
C566        C643   1.515       .  S
Zr567       O568   2.436       .  S
Zr567       O569   2.435       .  S
Zr567       O575   2.360       .  S
Zr567       O576   2.376       .  S
Zr567       O579   2.374       .  S
Zr567       O577   2.371       .  S
O568        H588   0.991       .  S
O568        H593   0.990       .  S
O569        H589   0.990       .  S
Zr570       O571   2.434       .  S
Zr570       O572   2.436       .  S
Zr570       O576   2.375       .  S
Zr570       O575   2.369       .  S
Zr570       O580   2.372       .  S
Zr570       O578   2.373       .  S
O571        H587   0.990       .  S
O572        H586   0.990       .  S
O572        H596   0.990       .  S
Zr573       O576   2.388       .  S
Zr573       O578   2.392       .  S
Zr573       O579   2.390       .  S
Zr574       O575   2.382       .  S
Zr574       O577   2.386       .  S
Zr574       O580   2.389       .  S
O575        H583   0.965       .  S
O578        H582   0.966       .  S
O579        H584   0.966       .  S
C597        C598   1.407       .  A
C597        C602   1.421       .  A
C597        H604   1.083       .  S
C598        C599   1.413       .  A
C599        C600   1.410       .  A
C599        N606   1.438       .  S
C600        C601   1.407       .  A
C600        H605   1.084       .  S
C601        C602   1.418       .  A
C602        N603   1.436       .  S
N603        H607   1.045       .  S
N603        H608   1.046       .  S
N606        H609   1.046       .  S
N606        H610   1.046       .  S
C611        C612   1.401       .  A
C611        C852   1.396   1_554  A
C611        H618   1.083       .  S
C612        C849   1.407       .  A
C613        C848   1.405       .  A
C613        C614   1.401       .  A
C613        N620   1.431       .  S
C614        C615   1.402       .  A
C614        H619   1.084       .  S
C615        C616   1.414       .  A
C616        C847   1.395       .  A
C616        N617   1.433       .  S
N617        H621   1.044       .  S
N617        H622   1.046       .  S
N620        H859   1.045       .  S
N620        H624   1.046       .  S
H623        N856   1.045   1_556  S
C625        C626   1.409       .  A
C625        C630   1.406       .  A
C625        H632   1.084       .  S
C626        C627   1.408       .  A
C627        C628   1.400       .  A
C627        N634   1.438       .  S
C628        C629   1.404       .  A
C628        H633   1.083       .  S
C629        C630   1.415       .  A
C630        N631   1.438       .  S
N631        H635   1.045       .  S
N631        H636   1.044       .  S
N634        H637   1.046       .  S
N634        H638   1.046       .  S
C639        C640   1.408       .  A
C639        C644   1.419       .  A
C639        H646   1.081       .  S
C640        N723   1.463       .  S
C640        C641   1.414       .  A
C641        C642   1.410       .  A
C641        N884   1.428       .  S
C642        C643   1.410       .  A
C642        H647   1.084       .  S
C643        C644   1.415       .  A
C644        N645   1.431       .  S
N645        H649   1.045       .  S
N645        H650   1.046       .  S
N648        C877   1.427       .  S
N648        H651   1.046       .  S
N648        H652   1.046       .  S
C653        C654   1.402       .  A
C653        C658   1.394       .  A
C653        H660   1.085       .  S
C654        C655   1.402       .  A
C655        C656   1.393       .  A
C655        N662   1.433       .  S
C656        C657   1.410       .  A
C656        H661   1.083       .  S
C657        C658   1.408       .  A
C658        N659   1.433       .  S
N659        H663   1.046       .  S
N659        H664   1.046       .  S
N662        H665   1.045       .  S
N662        H666   1.044   1_554  S
C667        C668   1.401       .  A
C667        C908   1.413       .  A
C667        H674   1.084       .  S
C668        C669   1.418       .  A
C669        C670   1.417       .  A
C669        N676   1.432       .  S
C670        C671   1.409       .  A
C670        H675   1.083       .  S
C671        N716   1.467       .  S
C671        C908   1.435       .  A
C672        C903   1.416       .  A
C672        C907   1.439       .  A
C672        N673   1.437   1_556  S
N673        H677   1.045       .  S
N673        H678   1.036       .  S
N676        H679   1.046       .  S
N676        H680   1.045       .  S
C681        C682   1.406       .  A
C681        C686   1.412       .  A
C681        H688   1.082       .  S
C682        C683   1.413       .  A
C683        C684   1.408       .  A
C683        N690   1.433       .  S
C684        C685   1.406       .  A
C684        H689   1.083       .  S
C685        C686   1.412       .  A
C686        N687   1.431       .  S
N687        H691   1.045       .  S
N687        H692   1.045       .  S
N690        H693   1.046       .  S
N690        H694   1.045       .  S
C695        C696   1.402       .  A
C695        C700   1.394       .  A
C695        H702   1.084       .  S
C696        C697   1.420       .  A
C697        C698   1.408       .  A
C697        N704   1.434       .  S
C698        C699   1.396       .  A
C698        H703   1.084       .  S
C699        C700   1.408       .  A
C700        N701   1.433       .  S
N701        H705   1.046       .  S
N701        H942   1.046       .  S
N704        H707   1.045       .  S
N704        H708   1.046       .  S
H706        N937   1.045       .  S
N709        C713   1.366       .  A
N709        C921   1.455       .  S
C710        C711   1.379       .  A
C710        C935   1.472       .  S
C711        C712   1.364       .  A
C711        H714   1.083       .  S
C712        H715   1.083       .  S
N716        C720   1.383       .  A
N716        C717   1.358       .  A
C717        C718   1.369       .  A
C717        C890   1.453       .  S
C718        C719   1.352       .  A
C718        H721   1.083       .  S
C719        C720   1.393       .  A
C719        H722   1.080       .  S
N723        C727   1.372       .  A
N723        C724   1.364       .  A
C724        C725   1.376       .  A
C724        C865   1.478       .  S
C725        C726   1.364       .  A
C725        H728   1.083       .  S
C726        C727   1.386       .  A
C726        H729   1.083       .  S
N730        C735   1.350   1_556  A
N730       C1678   1.355   1_556  A
N730        H762   1.045       .  S
N731        C738   1.355       .  A
N731        C739   1.351       .  A
N732       C1208   1.360   1_565  A
N732        H763   1.042       .  S
N733        C740   1.356       .  A
N733        C741   1.355       .  A
C734       N1674   1.360       .  A
C734       C1686   1.379       .  A
C734        C750   1.422   1_554  A
C735        C751   1.409       .  A
C735        C743   1.384       .  A
C736       N1204   1.362       .  A
C736        C744   1.384       .  A
C737        C745   1.388       .  A
C738        C746   1.387       .  A
C739        C753   1.411   1_565  A
C739        C747   1.383   1_565  A
C740        C748   1.386   1_554  A
C740        C751   1.418       .  A
C741        C749   1.386   1_554  A
C742       C1678   1.380       .  A
C742        C743   1.380       .  A
C742        H754   1.069       .  S
C743        H755   1.082       .  S
C744       C1689   1.377       .  A
C744        H756   1.082       .  S
C745       C1688   1.378       .  A
C745        H757   1.076       .  S
C746        C747   1.380   1_565  A
C746        H758   1.082       .  S
C747        H759   1.077       .  S
C748        C749   1.375       .  A
C748        H760   1.079       .  S
N764        C768   1.367       .  A
N764        C765   1.364       .  A
N764        C848   1.431       .  S
C765        C766   1.381       .  A
C765        C837   1.504       .  S
C766        H769   1.082       .  S
C767        H770   1.082   1_445  S
O771       Zr783   2.450       .  S
O771        C773   1.291       .  A
O772       Zr809   2.404       .  S
O772        C773   1.282       .  A
C773        C932   1.483       .  S
O774       Zr786   2.430       .  S
O774        C776   1.287       .  A
O775       Zr810   2.374       .  S
O775        C776   1.278       .  A
C776        C893   1.459       .  S
O777       Zr786   2.426       .  S
O777        C779   1.284       .  A
O778       Zr809   2.511       .  S
O778        C779   1.304       .  A
C779        C904   1.517       .  S
O780       Zr783   2.451       .  S
O780        C782   1.290       .  A
O781       Zr810   2.462       .  S
O781        C782   1.293       .  A
C782        C918   1.498       .  S
Zr783       O784   2.434       .  S
Zr783       O785   2.438       .  S
Zr783       O789   2.374       .  S
Zr783       O790   2.368       .  S
Zr783       O813   2.384       .  S
Zr783       O815   2.368       .  S
O784        H827   0.990       .  S
O785        H826   0.990       .  S
O785        H830   0.990       .  S
Zr786       O787   2.435       .  S
Zr786       O788   2.434       .  S
Zr786       O790   2.363       .  S
Zr786       O789   2.370       .  S
Zr786       O814   2.373       .  S
Zr786       O816   2.367       .  S
O787        H828   0.990       .  S
O787        H831   0.990       .  S
O788        H821   0.990       .  S
O789       Zr809   2.383       .  S
O790       Zr810   2.380       .  S
O790        H817   0.966       .  S
O791       Zr803   2.471       .  S
O791        C793   1.293       .  A
O792       Zr810   2.392       .  S
O792        C793   1.280       .  A
C793        C862   1.475       .  S
O794       Zr806   2.457       .  S
O794        C796   1.291       .  A
O795       Zr809   2.412       .  S
O795        C796   1.284       .  A
C796        C851   1.476       .  S
O797       Zr806   2.471       .  S
O797        C799   1.294       .  A
O798       Zr810   2.449       .  S
O798        C799   1.290       .  A
C799        C834   1.493       .  S
O800       Zr803   2.433       .  S
O800        C802   1.287       .  A
O801       Zr809   2.491       .  S
O801        C802   1.299       .  A
C802        C879   1.508       .  S
Zr803       O804   2.437       .  S
Zr803       O805   2.436       .  S
Zr803       O811   2.357       .  S
Zr803       O812   2.388       .  S
Zr803       O815   2.381       .  S
Zr803       O813   2.372       .  S
O804        H824   0.990       .  S
O804        H829   0.990       .  S
O805        H825   0.990       .  S
Zr806       O807   2.434       .  S
Zr806       O808   2.436       .  S
Zr806       O812   2.383       .  S
Zr806       O811   2.370       .  S
Zr806       O816   2.369       .  S
Zr806       O814   2.375       .  S
O807        H823   0.990       .  S
O808        H822   0.990       .  S
O808        H832   0.990       .  S
Zr809       O812   2.400       .  S
Zr809       O814   2.390       .  S
Zr809       O815   2.399       .  S
Zr810       O811   2.383       .  S
Zr810       O813   2.384       .  S
Zr810       O816   2.382       .  S
O811        H819   0.965       .  S
O814        H818   0.966       .  S
O815        H820   0.965       .  S
C833        C834   1.407       .  A
C833        C838   1.419       .  A
C833        H840   1.084       .  S
C834        C835   1.410       .  A
C835        C836   1.411       .  A
C835        N842   1.438       .  S
C836        C837   1.406       .  A
C836        H841   1.084       .  S
C837        C838   1.416       .  A
C838        N839   1.437       .  S
N839        H843   1.046       .  S
N839        H844   1.045       .  S
N842        H845   1.045       .  S
N842        H846   1.046       .  S
C847        C848   1.401       .  A
C847        H854   1.083       .  S
C849        C850   1.405   1_554  A
C849        N856   1.431       .  S
C850        C851   1.405       .  A
C850        H855   1.084       .  S
C851        C852   1.416       .  A
C852        N853   1.433       .  S
N853        H857   1.045       .  S
N853        H858   1.045       .  S
N856        H860   1.046       .  S
C861        C862   1.409       .  A
C861        C866   1.403       .  A
C861        H868   1.084       .  S
C862        C863   1.405       .  A
C863        C864   1.402       .  A
C863        N870   1.438       .  S
C864        C865   1.406       .  A
C864        H869   1.083       .  S
C865        C866   1.412       .  A
C866        N867   1.438       .  S
N867        H871   1.046       .  S
N867        H872   1.044       .  S
N870        H873   1.046       .  S
N870        H874   1.046       .  S
C875        C876   1.410       .  A
C875        C880   1.415   1_554  A
C875        H882   1.082       .  S
C876        C877   1.412   1_554  A
C877        C878   1.407       .  A
C878        C879   1.409       .  A
C878        H883   1.084       .  S
C879        C880   1.411       .  A
C880        N881   1.427       .  S
N881        H885   1.045       .  S
N881        H886   1.046   1_556  S
N884        H887   1.046       .  S
N884        H888   1.046       .  S
C889        C890   1.401       .  A
C889        C894   1.391       .  A
C889        H896   1.084       .  S
C890        C891   1.403       .  A
C891        C892   1.391       .  A
C891        N898   1.432       .  S
C892        C893   1.407       .  A
C892        H897   1.084       .  S
C893        C894   1.406       .  A
C894        N895   1.433       .  S
N895        H899   1.046       .  S
N895        H900   1.046       .  S
N898        H901   1.045       .  S
N898        H902   1.045       .  S
C903        C904   1.401       .  A
C903        H910   1.084       .  S
C904        C905   1.422       .  A
C905        C906   1.416       .  A
C905        N912   1.432       .  S
C906        C907   1.408       .  A
C906        H911   1.083       .  S
C908        N909   1.435       .  S
N909        H913   1.046       .  S
N909        H914   1.035       .  S
N912        H915   1.046       .  S
N912        H916   1.046       .  S
C917        C918   1.408       .  A
C917        C922   1.414       .  A
C917        H924   1.083       .  S
C918        C919   1.412       .  A
C919        C920   1.408       .  A
C919        N926   1.432       .  S
C920        C921   1.406       .  A
C920        H925   1.083       .  S
C921        C922   1.414       .  A
C922        N923   1.432       .  S
N923        H927   1.045       .  S
N923        H928   1.045       .  S
N926        H929   1.046       .  S
N926        H930   1.046       .  S
C931        C932   1.402       .  A
C931        C936   1.395       .  A
C931        H938   1.084       .  S
C932        C933   1.419       .  A
C933        C934   1.407       .  A
C933        N940   1.435       .  S
C934        C935   1.398       .  A
C934        H939   1.084   1_556  S
C935        C936   1.407       .  A
C936        N937   1.433       .  S
N937        H941   1.046       .  S
N940        H943   1.046       .  S
N940        H944   1.046   1_556  S
N945        C949   1.365   1_554  A
N945       C1182   1.361   1_554  A
N945       C1157   1.450       .  S
C946       N1181   1.362       .  A
C946        C947   1.379       .  A
C946       C1171   1.473       .  S
C947        C948   1.361       .  A
C947        H950   1.083       .  S
C948       C1185   1.385       .  A
C948        H951   1.083       .  S
C949       C1184   1.383       .  A
C949       C1223   1.493   1_556  S
N952        C956   1.383   1_554  A
N952        C953   1.358       .  A
N952       C1379   1.467   1_554  S
C953        C954   1.366       .  A
C953       C1126   1.452       .  S
C954        C955   1.352       .  A
C954        H957   1.083       .  S
C955        C956   1.396   1_554  A
C955        H958   1.077       .  S
C956       C1222   1.527       .  S
N959        C963   1.374   1_545  A
N959        C960   1.363       .  A
N959       C1348   1.460       .  S
C960        C961   1.377   1_545  A
C960       C1101   1.480       .  S
C961        C962   1.365       .  A
C961        H964   1.082       .  S
C962        C963   1.386       .  A
C962        H965   1.083       .  S
C963       C1224   1.510       .  S
N966        C971   1.350   1_455  A
N966        H998   1.045   1_455  S
N967        C974   1.355   1_554  A
N967        C975   1.350       .  A
N968       C1445   1.360       .  A
N968        H999   1.043   1_554  S
N969        C976   1.359       .  A
N969        C977   1.355       .  A
C970        C986   1.415       .  A
C971        C987   1.407       .  A
C971        C979   1.383       .  A
C972        C980   1.385       .  A
C972       C1461   1.427       .  A
C973       N1440   1.361   1_545  A
C973       C1224   1.429   1_545  A
C973        C981   1.388       .  A
C974       C1222   1.424       .  A
C974        C982   1.387       .  A
C975        C989   1.407       .  A
C975        C983   1.382   1_554  A
C976        C984   1.381       .  A
C976        C987   1.416       .  A
C977        C985   1.388       .  A
C977       C1460   1.424       .  A
C978        C979   1.377   1_455  A
C978        H990   1.070       .  S
C979        H991   1.082       .  S
C980        H992   1.082       .  S
C981        H993   1.078       .  S
C982        C983   1.381       .  A
C982        H994   1.082       .  S
C983        H995   1.078       .  S
C984        C985   1.373       .  A
C984        H996   1.079       .  S
C985       H1469   1.076       .  S
C986       C1210   1.427       .  A
C986       C1192   1.525       .  S
C987       C1185   1.498       .  S
C988       C1209   1.431   1_565  A
C988       C1449   1.422       .  A
C988       C1199   1.505       .  S
C989       C1444   1.423       .  A
C989       C1476   1.512       .  S
H997       C1457   1.077       .  S
N1000      C1004   1.368       .  A
N1000      C1001   1.367       .  A
N1000      C1084   1.432       .  S
C1001      C1002   1.383       .  A
C1001      C1073   1.510       .  S
C1002      C1475   1.375       .  A
C1002      H1005   1.082       .  S
C1003      C1474   1.379       .  A
C1003      C1476   1.386       .  A
C1003      H1006   1.082       .  S
C1004      C1475   1.384       .  A
C1004      C1461   1.515       .  S
O1007     Zr1019   2.451       .  S
O1007      C1009   1.292       .  A
O1008     Zr1045   2.402       .  S
O1008      C1009   1.282       .  A
C1009      C1168   1.485       .  S
O1010     Zr1022   2.443       .  S
O1010      C1012   1.289       .  A
O1011     Zr1046   2.373       .  S
O1011      C1012   1.278       .  A
C1012      C1129   1.462       .  S
O1013     Zr1022   2.433       .  S
O1013      C1015   1.286       .  A
O1014     Zr1045   2.497       .  S
O1014      C1015   1.302       .  A
C1015      C1140   1.513       .  S
O1016     Zr1019   2.447       .  S
O1016      C1018   1.289       .  A
O1017     Zr1046   2.470       .  S
O1017      C1018   1.295       .  A
C1018      C1154   1.495       .  S
Zr1019     O1020   2.435       .  S
Zr1019     O1021   2.435       .  S
Zr1019     O1025   2.372       .  S
Zr1019     O1026   2.369       .  S
Zr1019     O1049   2.383       .  S
Zr1019     O1051   2.363       .  S
O1020      H1063   0.990       .  S
O1021      H1062   0.990       .  S
O1021      H1066   0.990       .  S
Zr1022     O1023   2.436       .  S
Zr1022     O1024   2.435       .  S
Zr1022     O1026   2.361       .  S
Zr1022     O1025   2.376       .  S
Zr1022     O1050   2.375       .  S
Zr1022     O1052   2.372       .  S
O1023      H1064   0.990       .  S
O1023      H1067   0.989       .  S
O1024      H1057   0.990       .  S
O1025     Zr1045   2.391       .  S
O1026     Zr1046   2.394       .  S
O1026      H1053   0.965       .  S
O1027     Zr1039   2.457       .  S
O1027      C1029   1.291       .  A
O1028     Zr1046   2.417       .  S
O1028      C1029   1.285       .  A
C1029      C1098   1.485       .  S
O1030     Zr1042   2.444       .  S
O1030      C1032   1.288       .  A
O1031     Zr1045   2.414       .  S
O1031      C1032   1.285       .  A
C1032      C1087   1.473       .  S
O1033     Zr1042   2.444       .  S
O1033      C1035   1.289       .  A
O1034     Zr1046   2.474       .  S
O1034      C1035   1.295       .  A
C1035      C1070   1.498       .  S
O1036     Zr1039   2.438       .  S
O1036      C1038   1.288       .  A
O1037     Zr1045   2.492       .  S
O1037      C1038   1.299       .  A
C1038      C1115   1.510       .  S
Zr1039     O1040   2.435       .  S
Zr1039     O1041   2.438       .  S
Zr1039     O1047   2.360       .  S
Zr1039     O1048   2.383       .  S
Zr1039     O1051   2.377       .  S
Zr1039     O1049   2.371       .  S
O1040      H1060   0.990       .  S
O1040      H1065   0.990       .  S
O1041      H1061   0.990       .  S
Zr1042     O1043   2.432       .  S
Zr1042     O1044   2.436       .  S
Zr1042     O1048   2.379       .  S
Zr1042     O1047   2.375       .  S
Zr1042     O1052   2.367       .  S
Zr1042     O1050   2.363       .  S
O1043      H1059   0.990       .  S
O1044      H1058   0.990       .  S
O1044      H1068   0.990       .  S
Zr1045     O1048   2.390       .  S
Zr1045     O1050   2.391       .  S
Zr1045     O1051   2.396       .  S
Zr1046     O1047   2.379       .  S
Zr1046     O1049   2.386       .  S
Zr1046     O1052   2.390       .  S
O1047      H1055   0.966       .  S
O1050      H1054   0.965       .  S
O1051      H1056   0.965       .  S
C1069      C1070   1.408       .  A
C1069      C1074   1.423       .  A
C1069      H1076   1.083       .  S
C1070      C1071   1.412       .  A
C1071      C1072   1.408       .  A
C1071      N1078   1.439       .  S
C1072      C1073   1.406       .  A
C1072      H1077   1.083       .  S
C1073      C1074   1.419       .  A
C1074      N1075   1.436       .  S
N1075      H1079   1.046       .  S
N1075      H1080   1.046       .  S
N1078      H1081   1.046       .  S
N1078      H1082   1.046       .  S
C1083      C1084   1.402       .  A
C1083      C1324   1.396   1_554  A
C1083      H1090   1.083       .  S
C1084      C1321   1.405       .  A
C1085      C1320   1.406       .  A
C1085      C1086   1.405       .  A
C1085      N1092   1.431       .  S
C1086      C1087   1.405       .  A
C1086      H1091   1.084       .  S
C1087      C1088   1.415       .  A
C1088      C1319   1.396       .  A
C1088      N1089   1.434       .  S
N1089      H1093   1.045       .  S
N1089      H1094   1.046       .  S
N1092      H1331   1.045       .  S
N1092      H1096   1.046       .  S
H1095      N1328   1.045   1_556  S
C1097      C1098   1.410       .  A
C1097      C1102   1.407       .  A
C1097      H1104   1.084       .  S
C1098      C1099   1.412       .  A
C1099      C1100   1.404       .  A
C1099      N1106   1.438       .  S
C1100      C1101   1.404       .  A
C1100      H1105   1.083       .  S
C1101      C1102   1.404       .  A
C1102      N1103   1.432       .  S
N1103      H1107   1.046       .  S
N1103      H1108   1.046       .  S
N1106      H1109   1.046       .  S
N1106      H1110   1.046       .  S
C1111      C1112   1.408       .  A
C1111      C1116   1.420       .  A
C1111      H1118   1.083       .  S
C1112      N1195   1.460       .  S
C1112      C1113   1.413       .  A
C1113      C1114   1.408       .  A
C1113      N1356   1.428   1_545  S
C1114      C1115   1.407       .  A
C1114      H1119   1.084       .  S
C1115      C1116   1.416       .  A
C1116      N1117   1.432       .  S
N1117      H1121   1.046       .  S
N1117      H1122   1.045       .  S
N1120      C1349   1.429   1_565  S
N1120      H1123   1.046       .  S
N1120      H1124   1.046       .  S
C1125      C1126   1.402       .  A
C1125      C1130   1.392       .  A
C1125      H1132   1.085       .  S
C1126      C1127   1.402       .  A
C1127      C1128   1.391       .  A
C1127      N1134   1.432       .  S
C1128      C1129   1.408       .  A
C1128      H1133   1.083       .  S
C1129      C1130   1.406       .  A
C1130      N1131   1.433       .  S
N1131      H1135   1.046       .  S
N1131      H1136   1.046       .  S
N1134      H1137   1.046       .  S
N1134      H1138   1.045   1_554  S
C1139      C1140   1.400       .  A
C1139      C1380   1.412       .  A
C1139      H1146   1.084       .  S
C1140      C1141   1.422       .  A
C1141      C1142   1.417       .  A
C1141      N1148   1.437       .  S
C1142      C1143   1.407       .  A
C1142      H1147   1.083       .  S
C1143      N1188   1.468       .  S
C1143      C1380   1.437       .  A
C1144      C1375   1.411       .  A
C1144      C1379   1.438       .  A
C1144      N1145   1.435   1_556  S
N1145      H1149   1.046       .  S
N1145      H1150   1.033       .  S
N1148      H1151   1.046       .  S
N1148      H1152   1.046       .  S
C1153      C1154   1.407       .  A
C1153      C1158   1.414       .  A
C1153      H1160   1.082       .  S
C1154      C1155   1.412       .  A
C1155      C1156   1.408       .  A
C1155      N1162   1.432       .  S
C1156      C1157   1.406       .  A
C1156      H1161   1.083       .  S
C1157      C1158   1.410       .  A
C1158      N1159   1.431       .  S
N1159      H1163   1.045       .  S
N1159      H1164   1.045       .  S
N1162      H1165   1.046       .  S
N1162      H1166   1.045       .  S
C1167      C1168   1.402       .  A
C1167      C1172   1.393       .  A
C1167      H1174   1.084       .  S
C1168      C1169   1.420       .  A
C1169      C1170   1.408       .  A
C1169      N1176   1.435       .  S
C1170      C1171   1.398       .  A
C1170      H1175   1.084       .  S
C1171      C1172   1.408       .  A
C1172      N1173   1.433       .  S
N1173      H1177   1.046       .  S
N1173      H1414   1.046       .  S
N1176      H1179   1.046       .  S
N1176      H1180   1.046       .  S
H1178      N1409   1.046       .  S
N1181      C1185   1.368       .  A
N1181      C1393   1.455       .  S
C1182      C1183   1.382       .  A
C1182      C1407   1.481       .  S
C1183      C1184   1.364       .  A
C1183      H1186   1.083       .  S
C1184      H1187   1.083       .  S
N1188      C1192   1.384       .  A
N1188      C1189   1.359       .  A
C1189      C1190   1.368       .  A
C1189      C1362   1.455       .  S
C1190      C1191   1.354       .  A
C1190      H1193   1.083       .  S
C1191      C1192   1.394       .  A
C1191      H1194   1.078       .  S
N1195      C1199   1.372   1_545  A
N1195      C1196   1.362       .  A
C1196      C1197   1.378   1_545  A
C1196      C1337   1.478       .  S
C1197      C1198   1.364       .  A
C1197      H1200   1.083       .  S
C1198      C1199   1.386       .  A
C1198      H1201   1.083       .  S
N1202      C1207   1.349   1_456  A
N1202      H1234   1.045   1_455  S
N1203      C1210   1.356       .  A
N1203      C1211   1.352       .  A
N1204      C1681   1.360       .  A
N1204      H1235   1.042       .  S
N1205      C1212   1.357   1_554  A
N1205      C1213   1.356       .  A
C1206      C1222   1.415   1_554  A
C1207      C1223   1.410       .  A
C1207      C1215   1.385       .  A
C1208      C1216   1.387       .  A
C1208      C1697   1.429       .  A
C1209      N1676   1.361       .  A
C1209      C1217   1.388       .  A
C1210      C1218   1.387       .  A
C1211      C1225   1.410       .  A
C1211      C1219   1.382       .  A
C1212      C1220   1.385       .  A
C1212      C1223   1.419   1_556  A
C1213      C1221   1.385   1_554  A
C1213      C1696   1.420       .  A
C1214      C1215   1.382   1_455  A
C1214      H1226   1.070       .  S
C1215      H1227   1.082       .  S
C1216      H1228   1.082       .  S
C1217      H1229   1.078       .  S
C1218      C1219   1.381       .  A
C1218      H1230   1.082       .  S
C1219      H1231   1.078       .  S
C1220      C1221   1.376       .  A
C1220      H1232   1.080       .  S
C1221      H1705   1.079       .  S
C1224      C1685   1.424       .  A
C1225      C1680   1.425       .  A
C1225      C1712   1.514       .  S
H1233      C1693   1.077       .  S
N1236      C1240   1.370       .  A
N1236      C1237   1.367       .  A
N1236      C1320   1.436       .  S
C1237      C1238   1.381       .  A
C1237      C1309   1.505       .  S
C1238      C1711   1.374       .  A
C1238      H1241   1.082       .  S
C1239      C1710   1.376       .  A
C1239      C1712   1.384       .  A
C1239      H1242   1.082       .  S
C1240      C1711   1.385       .  A
C1240      C1697   1.512       .  S
O1243     Zr1255   2.453       .  S
O1243      C1245   1.292       .  A
O1244     Zr1281   2.411       .  S
O1244      C1245   1.283       .  A
C1245      C1404   1.491       .  S
O1246     Zr1258   2.444       .  S
O1246      C1248   1.288       .  A
O1247     Zr1282   2.380       .  S
O1247      C1248   1.279       .  A
C1248      C1365   1.466       .  S
O1249     Zr1258   2.423       .  S
O1249      C1251   1.284       .  A
O1250     Zr1281   2.497       .  S
O1250      C1251   1.301       .  A
C1251      C1376   1.508       .  S
O1252     Zr1255   2.444       .  S
O1252      C1254   1.289       .  A
O1253     Zr1282   2.475       .  S
O1253      C1254   1.296       .  A
C1254      C1390   1.502       .  S
Zr1255     O1256   2.434       .  S
Zr1255     O1257   2.436       .  S
Zr1255     O1261   2.367       .  S
Zr1255     O1262   2.369       .  S
Zr1255     O1285   2.384       .  S
Zr1255     O1287   2.363       .  S
O1256      H1299   0.990       .  S
O1257      H1298   0.990       .  S
O1257      H1302   0.990       .  S
Zr1258     O1259   2.437       .  S
Zr1258     O1260   2.436       .  S
Zr1258     O1262   2.363       .  S
Zr1258     O1261   2.376       .  S
Zr1258     O1286   2.376       .  S
Zr1258     O1288   2.369       .  S
O1259      H1300   0.990       .  S
O1259      H1303   0.990       .  S
O1260      H1293   0.990       .  S
O1261     Zr1281   2.383       .  S
O1262     Zr1282   2.384       .  S
O1262      H1289   0.964       .  S
O1263     Zr1275   2.462       .  S
O1263      C1265   1.293       .  A
O1264     Zr1282   2.408       .  S
O1264      C1265   1.284       .  A
C1265      C1334   1.480       .  S
O1266     Zr1278   2.449       .  S
O1266      C1268   1.290       .  A
O1267     Zr1281   2.404       .  S
O1267      C1268   1.283       .  A
C1268      C1323   1.468       .  S
O1269     Zr1278   2.464       .  S
O1269      C1271   1.293       .  A
O1270     Zr1282   2.455       .  S
O1270      C1271   1.291       .  A
C1271      C1306   1.494       .  S
O1272     Zr1275   2.440       .  S
O1272      C1274   1.288       .  A
O1273     Zr1281   2.491       .  S
O1273      C1274   1.299       .  A
C1274      C1351   1.509       .  S
Zr1275     O1276   2.437       .  S
Zr1275     O1277   2.434       .  S
Zr1275     O1283   2.360       .  S
Zr1275     O1284   2.379       .  S
Zr1275     O1287   2.380       .  S
Zr1275     O1285   2.377       .  S
O1276      H1296   0.990       .  S
O1276      H1301   0.990       .  S
O1277      H1297   0.990       .  S
Zr1278     O1279   2.434       .  S
Zr1278     O1280   2.436       .  S
Zr1278     O1284   2.378       .  S
Zr1278     O1283   2.365       .  S
Zr1278     O1288   2.376       .  S
Zr1278     O1286   2.378       .  S
O1279      H1295   0.990       .  S
O1280      H1294   0.990       .  S
O1280      H1304   0.990       .  S
Zr1281     O1284   2.392       .  S
Zr1281     O1286   2.398       .  S
Zr1281     O1287   2.391       .  S
Zr1282     O1283   2.383       .  S
Zr1282     O1285   2.386       .  S
Zr1282     O1288   2.391       .  S
O1283      H1291   0.966       .  S
O1286      H1290   0.967       .  S
O1287      H1292   0.965       .  S
C1305      C1306   1.407       .  A
C1305      C1310   1.420       .  A
C1305      H1312   1.083       .  S
C1306      C1307   1.411       .  A
C1307      C1308   1.409       .  A
C1307      N1314   1.438       .  S
C1308      C1309   1.407       .  A
C1308      H1313   1.084       .  S
C1309      C1310   1.417       .  A
C1310      N1311   1.436       .  S
N1311      H1315   1.046       .  S
N1311      H1316   1.045       .  S
N1314      H1317   1.046       .  S
N1314      H1318   1.046       .  S
C1319      C1320   1.401       .  A
C1319      H1326   1.083       .  S
C1321      C1322   1.400   1_554  A
C1321      N1328   1.431       .  S
C1322      C1323   1.402       .  A
C1322      H1327   1.084       .  S
C1323      C1324   1.415       .  A
C1324      N1325   1.434       .  S
N1325      H1329   1.045       .  S
N1325      H1330   1.046       .  S
N1328      H1332   1.046       .  S
C1333      C1334   1.410       .  A
C1333      C1338   1.405       .  A
C1333      H1340   1.084       .  S
C1334      C1335   1.408       .  A
C1335      C1336   1.401       .  A
C1335      N1342   1.438       .  S
C1336      C1337   1.405       .  A
C1336      H1341   1.083       .  S
C1337      C1338   1.413       .  A
C1338      N1339   1.438       .  S
N1339      H1343   1.046       .  S
N1339      H1344   1.043       .  S
N1342      H1345   1.046       .  S
N1342      H1346   1.046       .  S
C1347      C1348   1.410       .  A
C1347      C1352   1.421   1_554  A
C1347      H1354   1.083       .  S
C1348      C1349   1.414   1_554  A
C1349      C1350   1.409       .  A
C1350      C1351   1.407       .  A
C1350      H1355   1.084       .  S
C1351      C1352   1.416       .  A
C1352      N1353   1.434       .  S
N1353      H1357   1.046       .  S
N1353      H1358   1.045       .  S
N1356      H1359   1.046       .  S
N1356      H1360   1.046       .  S
C1361      C1362   1.402       .  A
C1361      C1366   1.393       .  A
C1361      H1368   1.085       .  S
C1362      C1363   1.403       .  A
C1363      C1364   1.392       .  A
C1363      N1370   1.433       .  S
C1364      C1365   1.409       .  A
C1364      H1369   1.083       .  S
C1365      C1366   1.406       .  A
C1366      N1367   1.433       .  S
N1367      H1371   1.046       .  S
N1367      H1372   1.046       .  S
N1370      H1373   1.045       .  S
N1370      H1374   1.045       .  S
C1375      C1376   1.398       .  A
C1375      H1382   1.084       .  S
C1376      C1377   1.421       .  A
C1377      C1378   1.416       .  A
C1377      N1384   1.438       .  S
C1378      C1379   1.407       .  A
C1378      H1383   1.083       .  S
C1380      N1381   1.435       .  S
N1381      H1385   1.045       .  S
N1381      H1386   1.034       .  S
N1384      H1387   1.046       .  S
N1384      H1388   1.046       .  S
C1389      C1390   1.408       .  A
C1389      C1394   1.416       .  A
C1389      H1396   1.082       .  S
C1390      C1391   1.415       .  A
C1391      C1392   1.408       .  A
C1391      N1398   1.432       .  S
C1392      C1393   1.405       .  A
C1392      H1397   1.083       .  S
C1393      C1394   1.415       .  A
C1394      N1395   1.432       .  S
N1395      H1399   1.045       .  S
N1395      H1400   1.045       .  S
N1398      H1401   1.046       .  S
N1398      H1402   1.045       .  S
C1403      C1404   1.403       .  A
C1403      C1408   1.394       .  A
C1403      H1410   1.084       .  S
C1404      C1405   1.421       .  A
C1405      C1406   1.413       .  A
C1405      N1412   1.436       .  S
C1406      C1407   1.401       .  A
C1406      H1411   1.083   1_556  S
C1407      C1408   1.408       .  A
C1408      N1409   1.433       .  S
N1409      H1413   1.046       .  S
N1412      H1415   1.046       .  S
N1412      H1416   1.046   1_556  S
N1417      C1421   1.370   1_554  A
N1417      C1654   1.363   1_554  A
N1417      C1629   1.454       .  S
C1418      N1653   1.361       .  A
C1418      C1419   1.380       .  A
C1418      C1643   1.474       .  S
C1419      C1420   1.361       .  A
C1419      H1422   1.083       .  S
C1420      C1657   1.384       .  A
C1420      H1423   1.083       .  S
C1421      C1656   1.384       .  A
C1421      C1695   1.501   1_556  S
N1424      C1428   1.383   1_554  A
N1424      C1425   1.360       .  A
N1424      C1851   1.466   1_554  S
C1425      C1426   1.369       .  A
C1425      C1598   1.454       .  S
C1426      C1427   1.354       .  A
C1426      H1429   1.083       .  S
C1427      C1428   1.394   1_554  A
C1427      H1430   1.079       .  S
C1428      C1694   1.523       .  S
N1431      C1435   1.372       .  A
N1431      C1432   1.361       .  A
N1431      C1820   1.456       .  S
C1432      C1433   1.378       .  A
C1432      C1573   1.479       .  S
C1433      C1434   1.365       .  A
C1433      H1436   1.082       .  S
C1434      C1435   1.386       .  A
C1434      H1437   1.083       .  S
C1435      C1696   1.506       .  S
N1438      C1443   1.349       .  A
N1438      H1470   1.044       .  S
N1439      C1446   1.355   1_554  A
N1439      C1447   1.351   1_565  A
N1440      H1471   1.042   1_554  S
N1441      C1448   1.358       .  A
N1441      C1449   1.356       .  A
C1442      C1458   1.416       .  A
C1443      C1459   1.408       .  A
C1443      C1451   1.384       .  A
C1444      C1452   1.384       .  A
C1445      C1696   1.428       .  A
C1445      C1453   1.388       .  A
C1446      C1694   1.426       .  A
C1446      C1454   1.388       .  A
C1447      C1461   1.412       .  A
C1447      C1455   1.383   1_554  A
C1448      C1456   1.383       .  A
C1448      C1459   1.419       .  A
C1449      C1457   1.387       .  A
C1450      C1451   1.380   1_455  A
C1450      H1462   1.070       .  S
C1451      H1463   1.082       .  S
C1452      H1464   1.082       .  S
C1453      H1465   1.078       .  S
C1454      C1455   1.381   1_565  A
C1454      H1466   1.083       .  S
C1455      H1467   1.077       .  S
C1456      C1457   1.373       .  A
C1456      H1468   1.079       .  S
C1458      C1682   1.432       .  A
C1458      C1664   1.530       .  S
C1459      C1657   1.491       .  S
C1460      C1681   1.431       .  A
C1460      C1671   1.501       .  S
N1472      C1476   1.366       .  A
N1472      C1473   1.364       .  A
N1472      C1556   1.432       .  S
C1473      C1474   1.381       .  A
C1473      C1545   1.504       .  S
C1474      H1477   1.082       .  S
C1475      H1478   1.082   1_545  S
O1479     Zr1491   2.443       .  S
O1479      C1481   1.290       .  A
O1480     Zr1517   2.409       .  S
O1480      C1481   1.283       .  A
C1481      C1640   1.483       .  S
O1482     Zr1494   2.437       .  S
O1482      C1484   1.288       .  A
O1483     Zr1518   2.383       .  S
O1483      C1484   1.279       .  A
C1484      C1601   1.462       .  S
O1485     Zr1494   2.440       .  S
O1485      C1487   1.287       .  A
O1486     Zr1517   2.505       .  S
O1486      C1487   1.303       .  A
C1487      C1612   1.519       .  S
O1488     Zr1491   2.439       .  S
O1488      C1490   1.287       .  A
O1489     Zr1518   2.472       .  S
O1489      C1490   1.295       .  A
C1490      C1626   1.498       .  S
Zr1491     O1492   2.434       .  S
Zr1491     O1493   2.435       .  S
Zr1491     O1497   2.372       .  S
Zr1491     O1498   2.366       .  S
Zr1491     O1521   2.379       .  S
Zr1491     O1523   2.364       .  S
O1492      H1535   0.990       .  S
O1493      H1534   0.990       .  S
O1493      H1538   0.990       .  S
Zr1494     O1495   2.436       .  S
Zr1494     O1496   2.434       .  S
Zr1494     O1498   2.370       .  S
Zr1494     O1497   2.372       .  S
Zr1494     O1522   2.371       .  S
Zr1494     O1524   2.372       .  S
O1495      H1536   0.990       .  S
O1495      H1539   0.990       .  S
O1496      H1529   0.990       .  S
O1497     Zr1517   2.383       .  S
O1498     Zr1518   2.383       .  S
O1498      H1525   0.965       .  S
O1499     Zr1511   2.464       .  S
O1499      C1501   1.293       .  A
O1500     Zr1518   2.400       .  S
O1500      C1501   1.282       .  A
C1501      C1570   1.481       .  S
O1502     Zr1514   2.443       .  S
O1502      C1504   1.288       .  A
O1503     Zr1517   2.409       .  S
O1503      C1504   1.284       .  A
C1504      C1559   1.468       .  S
O1505     Zr1514   2.466       .  S
O1505      C1507   1.293       .  A
O1506     Zr1518   2.460       .  S
O1506      C1507   1.292       .  A
C1507      C1542   1.496       .  S
O1508     Zr1511   2.445       .  S
O1508      C1510   1.289       .  A
O1509     Zr1517   2.492       .  S
O1509      C1510   1.299       .  A
C1510      C1587   1.512       .  S
Zr1511     O1512   2.439       .  S
Zr1511     O1513   2.434       .  S
Zr1511     O1519   2.362       .  S
Zr1511     O1520   2.379       .  S
Zr1511     O1523   2.378       .  S
Zr1511     O1521   2.376       .  S
O1512      H1532   0.990       .  S
O1512      H1537   0.990       .  S
O1513      H1533   0.990       .  S
Zr1514     O1515   2.433       .  S
Zr1514     O1516   2.437       .  S
Zr1514     O1520   2.382       .  S
Zr1514     O1519   2.364       .  S
Zr1514     O1524   2.370       .  S
Zr1514     O1522   2.377       .  S
O1515      H1531   0.990       .  S
O1516      H1530   0.990       .  S
O1516      H1540   0.990       .  S
Zr1517     O1520   2.396       .  S
Zr1517     O1522   2.392       .  S
Zr1517     O1523   2.396       .  S
Zr1518     O1519   2.384       .  S
Zr1518     O1521   2.385       .  S
Zr1518     O1524   2.388       .  S
O1519      H1527   0.965       .  S
O1522      H1526   0.967       .  S
O1523      H1528   0.966       .  S
C1541      C1542   1.407       .  A
C1541      C1546   1.420       .  A
C1541      H1548   1.083       .  S
C1542      C1543   1.411       .  A
C1543      C1544   1.411       .  A
C1543      N1550   1.438       .  S
C1544      C1545   1.406       .  A
C1544      H1549   1.084       .  S
C1545      C1546   1.416       .  A
C1546      N1547   1.437       .  S
N1547      H1551   1.046       .  S
N1547      H1552   1.045       .  S
N1550      H1553   1.046       .  S
N1550      H1554   1.045       .  S
C1555      C1556   1.400       .  A
C1555      C1796   1.395   1_554  A
C1555      H1562   1.084       .  S
C1556      C1793   1.405       .  A
C1557      C1792   1.407       .  A
C1557      C1558   1.402       .  A
C1557      N1564   1.431       .  S
C1558      C1559   1.403       .  A
C1558      H1563   1.084       .  S
C1559      C1560   1.414       .  A
C1560      C1791   1.396       .  A
C1560      N1561   1.433       .  S
N1561      H1565   1.044       .  S
N1561      H1566   1.046       .  S
N1564      H1803   1.046       .  S
N1564      H1568   1.045       .  S
H1567      N1800   1.045   1_556  S
C1569      C1570   1.410       .  A
C1569      C1574   1.404       .  A
C1569      H1576   1.084       .  S
C1570      C1571   1.408       .  A
C1571      C1572   1.401       .  A
C1571      N1578   1.438       .  S
C1572      C1573   1.405       .  A
C1572      H1577   1.084       .  S
C1573      C1574   1.414       .  A
C1574      N1575   1.439       .  S
N1575      H1579   1.046       .  S
N1575      H1580   1.043       .  S
N1578      H1581   1.046       .  S
N1578      H1582   1.046       .  S
C1583      C1584   1.410       .  A
C1583      C1588   1.422       .  A
C1583      H1590   1.083       .  S
C1584      N1667   1.461       .  S
C1584      C1585   1.412       .  A
C1585      C1586   1.407       .  A
C1585      N1828   1.427       .  S
C1586      C1587   1.407       .  A
C1586      H1591   1.084       .  S
C1587      C1588   1.417       .  A
C1588      N1589   1.433       .  S
N1589      H1593   1.046       .  S
N1589      H1594   1.045       .  S
N1592      C1821   1.430       .  S
N1592      H1595   1.045       .  S
N1592      H1596   1.046       .  S
C1597      C1598   1.401       .  A
C1597      C1602   1.390       .  A
C1597      H1604   1.085       .  S
C1598      C1599   1.404       .  A
C1599      C1600   1.394       .  A
C1599      N1606   1.432       .  S
C1600      C1601   1.408       .  A
C1600      H1605   1.083       .  S
C1601      C1602   1.406       .  A
C1602      N1603   1.433       .  S
N1603      H1607   1.046       .  S
N1603      H1608   1.046       .  S
N1606      H1609   1.045       .  S
N1606      H1610   1.045   1_554  S
C1611      C1612   1.402       .  A
C1611      C1852   1.416       .  A
C1611      H1618   1.084       .  S
C1612      C1613   1.420       .  A
C1613      C1614   1.418       .  A
C1613      N1620   1.432       .  S
C1614      C1615   1.409       .  A
C1614      H1619   1.083       .  S
C1615      N1660   1.472       .  S
C1615      C1852   1.438       .  A
C1616      C1847   1.413       .  A
C1616      C1851   1.437       .  A
C1616      N1617   1.435   1_556  S
N1617      H1621   1.045       .  S
N1617      H1622   1.034       .  S
N1620      H1623   1.046       .  S
N1620      H1624   1.046       .  S
C1625      C1626   1.406       .  A
C1625      C1630   1.413       .  A
C1625      H1632   1.083       .  S
C1626      C1627   1.415       .  A
C1627      C1628   1.410       .  A
C1627      N1634   1.433       .  S
C1628      C1629   1.406       .  A
C1628      H1633   1.083       .  S
C1629      C1630   1.414       .  A
C1630      N1631   1.432       .  S
N1631      H1635   1.045       .  S
N1631      H1636   1.045       .  S
N1634      H1637   1.046       .  S
N1634      H1638   1.045       .  S
C1639      C1640   1.402       .  A
C1639      C1644   1.394       .  A
C1639      H1646   1.084       .  S
C1640      C1641   1.418       .  A
C1641      C1642   1.407       .  A
C1641      N1648   1.435       .  S
C1642      C1643   1.398       .  A
C1642      H1647   1.083       .  S
C1643      C1644   1.409       .  A
C1644      N1645   1.434       .  S
N1645      H1649   1.046       .  S
N1645      H1886   1.046       .  S
N1648      H1651   1.046       .  S
N1648      H1652   1.046       .  S
H1650      N1881   1.045       .  S
N1653      C1657   1.366       .  A
N1653      C1865   1.455       .  S
C1654      C1655   1.379       .  A
C1654      C1879   1.481       .  S
C1655      C1656   1.363       .  A
C1655      H1658   1.083       .  S
C1656      H1659   1.083       .  S
N1660      C1664   1.388       .  A
N1660      C1661   1.362       .  A
C1661      C1662   1.368       .  A
C1661      C1834   1.458       .  S
C1662      C1663   1.352       .  A
C1662      H1665   1.083       .  S
C1663      C1664   1.394       .  A
C1663      H1666   1.078       .  S
N1667      C1671   1.372       .  A
N1667      C1668   1.362       .  A
C1668      C1669   1.377       .  A
C1668      C1809   1.476       .  S
C1669      C1670   1.363       .  A
C1669      H1672   1.083       .  S
C1670      C1671   1.385       .  A
C1670      H1673   1.083       .  S
N1674      C1679   1.353   1_455  A
N1674      H1706   1.044   1_454  S
N1675      C1682   1.357       .  A
N1675      C1683   1.352       .  A
N1676      H1707   1.043   1_545  S
N1677      C1684   1.359       .  A
N1677      C1685   1.359       .  A
C1678      C1694   1.414   1_554  A
C1679      C1695   1.418       .  A
C1679      C1687   1.384   1_655  A
C1680      C1688   1.385       .  A
C1681      C1689   1.390       .  A
C1682      C1690   1.389       .  A
C1683      C1697   1.412   1_565  A
C1683      C1691   1.382   1_565  A
C1684      C1692   1.385   1_554  A
C1684      C1695   1.422       .  A
C1685      C1693   1.385   1_554  A
C1686      C1687   1.379       .  A
C1686      H1698   1.064       .  S
C1687      H1699   1.082   1_455  S
C1688      H1700   1.082       .  S
C1689      H1701   1.078       .  S
C1690      C1691   1.383   1_565  A
C1690      H1702   1.082       .  S
C1691      H1703   1.079       .  S
C1692      C1693   1.372       .  A
C1692      H1704   1.079       .  S
N1708      C1712   1.368       .  A
N1708      C1709   1.368       .  A
N1708      C1792   1.434       .  S
C1709      C1710   1.383       .  A
C1709      C1781   1.511       .  S
C1710      H1713   1.082       .  S
C1711      H1714   1.082   1_545  S
O1715     Zr1727   2.461       .  S
O1715      C1717   1.294       .  A
O1716     Zr1753   2.422       .  S
O1716      C1717   1.286       .  A
C1717      C1876   1.493       .  S
O1718     Zr1730   2.450       .  S
O1718      C1720   1.290       .  A
O1719     Zr1754   2.383       .  S
O1719      C1720   1.279       .  A
C1720      C1837   1.468       .  S
O1721     Zr1730   2.435       .  S
O1721      C1723   1.286       .  A
O1722     Zr1753   2.501       .  S
O1722      C1723   1.302       .  A
C1723      C1848   1.513       .  S
O1724     Zr1727   2.464       .  S
O1724      C1726   1.292       .  A
O1725     Zr1754   2.463       .  S
O1725      C1726   1.294       .  A
C1726      C1862   1.500       .  S
Zr1727     O1728   2.434       .  S
Zr1727     O1729   2.435       .  S
Zr1727     O1733   2.377       .  S
Zr1727     O1734   2.372       .  S
Zr1727     O1757   2.381       .  S
Zr1727     O1759   2.366       .  S
O1728      H1771   0.990       .  S
O1729      H1770   0.990       .  S
O1729      H1774   0.990       .  S
Zr1730     O1731   2.437       .  S
Zr1730     O1732   2.434       .  S
Zr1730     O1734   2.365       .  S
Zr1730     O1733   2.376       .  S
Zr1730     O1758   2.380       .  S
Zr1730     O1760   2.375       .  S
O1731      H1772   0.990       .  S
O1731      H1775   0.990       .  S
O1732      H1765   0.990       .  S
O1733     Zr1753   2.388       .  S
O1734     Zr1754   2.388       .  S
O1734      H1761   0.965       .  S
O1735     Zr1747   2.460       .  S
O1735      C1737   1.293       .  A
O1736     Zr1754   2.400       .  S
O1736      C1737   1.282       .  A
C1737      C1806   1.476       .  S
O1738     Zr1750   2.447       .  S
O1738      C1740   1.289       .  A
O1739     Zr1753   2.410       .  S
O1739      C1740   1.284       .  A
C1740      C1795   1.469       .  S
O1741     Zr1750   2.469       .  S
O1741      C1743   1.293       .  A
O1742     Zr1754   2.465       .  S
O1742      C1743   1.293       .  A
C1743      C1778   1.502       .  S
O1744     Zr1747   2.437       .  S
O1744      C1746   1.287       .  A
O1745     Zr1753   2.495       .  S
O1745      C1746   1.300       .  A
C1746      C1823   1.509       .  S
Zr1747     O1748   2.437       .  S
Zr1747     O1749   2.434       .  S
Zr1747     O1755   2.360       .  S
Zr1747     O1756   2.376       .  S
Zr1747     O1759   2.379       .  S
Zr1747     O1757   2.373       .  S
O1748      H1768   0.990       .  S
O1748      H1773   0.990       .  S
O1749      H1769   0.990       .  S
Zr1750     O1751   2.435       .  S
Zr1750     O1752   2.436       .  S
Zr1750     O1756   2.380       .  S
Zr1750     O1755   2.367       .  S
Zr1750     O1760   2.373       .  S
Zr1750     O1758   2.379       .  S
O1751      H1767   0.990       .  S
O1752      H1766   0.990       .  S
O1752      H1776   0.990       .  S
Zr1753     O1756   2.394       .  S
Zr1753     O1758   2.400       .  S
Zr1753     O1759   2.396       .  S
Zr1754     O1755   2.383       .  S
Zr1754     O1757   2.388       .  S
Zr1754     O1760   2.387       .  S
O1755      H1763   0.965       .  S
O1758      H1762   0.966       .  S
O1759      H1764   0.966       .  S
C1777      C1778   1.409       .  A
C1777      C1782   1.423       .  A
C1777      H1784   1.083       .  S
C1778      C1779   1.412       .  A
C1779      C1780   1.411       .  A
C1779      N1786   1.438       .  S
C1780      C1781   1.408       .  A
C1780      H1785   1.084       .  S
C1781      C1782   1.417       .  A
C1782      N1783   1.436       .  S
N1783      H1787   1.046       .  S
N1783      H1788   1.045       .  S
N1786      H1789   1.046       .  S
N1786      H1790   1.046       .  S
C1791      C1792   1.400       .  A
C1791      H1798   1.083       .  S
C1793      C1794   1.402   1_554  A
C1793      N1800   1.431       .  S
C1794      C1795   1.403       .  A
C1794      H1799   1.084       .  S
C1795      C1796   1.415       .  A
C1796      N1797   1.433       .  S
N1797      H1801   1.045       .  S
N1797      H1802   1.046       .  S
N1800      H1804   1.046       .  S
C1805      C1806   1.408       .  A
C1805      C1810   1.404       .  A
C1805      H1812   1.084       .  S
C1806      C1807   1.407       .  A
C1807      C1808   1.401       .  A
C1807      N1814   1.438       .  S
C1808      C1809   1.405       .  A
C1808      H1813   1.084       .  S
C1809      C1810   1.412       .  A
C1810      N1811   1.439       .  S
N1811      H1815   1.045       .  S
N1811      H1816   1.043       .  S
N1814      H1817   1.046       .  S
N1814      H1818   1.046       .  S
C1819      C1820   1.408       .  A
C1819      C1824   1.421   1_554  A
C1819      H1826   1.083       .  S
C1820      C1821   1.413   1_554  A
C1821      C1822   1.409       .  A
C1822      C1823   1.407       .  A
C1822      H1827   1.084       .  S
C1823      C1824   1.415       .  A
C1824      N1825   1.431       .  S
N1825      H1829   1.046       .  S
N1825      H1830   1.045       .  S
N1828      H1831   1.046       .  S
N1828      H1832   1.046       .  S
C1833      C1834   1.402       .  A
C1833      C1838   1.393       .  A
C1833      H1840   1.085       .  S
C1834      C1835   1.404       .  A
C1835      C1836   1.395       .  A
C1835      N1842   1.433       .  S
C1836      C1837   1.410       .  A
C1836      H1841   1.083       .  S
C1837      C1838   1.406       .  A
C1838      N1839   1.432       .  S
N1839      H1843   1.046       .  S
N1839      H1844   1.046       .  S
N1842      H1845   1.045       .  S
N1842      H1846   1.045       .  S
C1847      C1848   1.401       .  A
C1847      H1854   1.084       .  S
C1848      C1849   1.420       .  A
C1849      C1850   1.414       .  A
C1849      N1856   1.432       .  S
C1850      C1851   1.405       .  A
C1850      H1855   1.083       .  S
C1852      N1853   1.435       .  S
N1853      H1857   1.045       .  S
N1853      H1858   1.035       .  S
N1856      H1859   1.046       .  S
N1856      H1860   1.046       .  S
C1861      C1862   1.408       .  A
C1861      C1866   1.415       .  A
C1861      H1868   1.083       .  S
C1862      C1863   1.412       .  A
C1863      C1864   1.412       .  A
C1863      N1870   1.432       .  S
C1864      C1865   1.407       .  A
C1864      H1869   1.083       .  S
C1865      C1866   1.412       .  A
C1866      N1867   1.431       .  S
N1867      H1871   1.045       .  S
N1867      H1872   1.045       .  S
N1870      H1873   1.045       .  S
N1870      H1874   1.046       .  S
C1875      C1876   1.403       .  A
C1875      C1880   1.398       .  A
C1875      H1882   1.084       .  S
C1876      C1877   1.420       .  A
C1877      C1878   1.412       .  A
C1877      N1884   1.434       .  S
C1878      C1879   1.400       .  A
C1878      H1883   1.084   1_556  S
C1879      C1880   1.408       .  A
C1880      N1881   1.433       .  S
N1881      H1885   1.046       .  S
N1884      H1887   1.046       .  S
N1884      H1888   1.046   1_556  S
