geometry optimzed in LAMMPS
_audit_creation_date              2020-11-30 
_audit_creation_method            'lammps2cif' 
_symmetry_space_group_name_H-M    'P1' 
_symmetry_Int_Tables_number       1 
_symmetry_cell_setting            triclinic 
loop_ 
_symmetry_equiv_pos_as_xyz 
  x,y,z 
_cell_length_a                    32.36468061747963 
_cell_length_b                    32.30752968346023 
_cell_length_c                    32.350513685102385 
_cell_angle_alpha                 90.08244555182613 
_cell_angle_beta                  89.7590106184768 
_cell_angle_gamma                 90.04912321639084 
loop_ 
_atom_site_label 
_atom_site_type_symbol 
_atom_site_fract_x 
_atom_site_fract_y 
_atom_site_fract_z 
_atom_site_charge 
C1          C  0.22513308  0.87297645  0.95924743     0.02810
C2          C  0.22854042  0.85207476  0.99617173    -0.13340
C3          C  0.22329228  0.87194204  0.03365371     0.00310
C4          C  0.21965862  0.91570223  0.03428186    -0.11870
C5          C  0.22147596  0.93952371  0.99685636     0.02800
C6          C  0.22297331  0.91660325  0.95899919    -0.11290
H7          H  0.23271622  0.81870363  0.99545025     0.08400
H8          H  0.21484811  0.93024557  0.06390960     0.05930
H9          H  0.22237692  0.93164434  0.92929023     0.05770
C10         C  0.66284047  0.05287122  0.96291407     0.02810
C11         C  0.65953495  0.07319732  0.00026496    -0.13340
C12         C  0.65565123  0.05212028  0.03706275     0.00310
C13         C  0.65677943  0.00824082  0.03708246    -0.11870
C14         C  0.66081059  0.98543524  0.99924056     0.02800
C15         C  0.66410769  0.00921610  0.96202611    -0.11290
H16         H  0.66097570  0.10681953  0.00076544     0.08400
H17         H  0.65426833  0.99272385  0.06650560     0.05930
H18         H  0.66803298  0.99483751  0.93220366     0.05770
C19         C  0.90693927  0.69512237  0.09327413     0.02810
C20         C  0.94418976  0.69980375  0.11307904    -0.13340
C21         C  0.98105962  0.69264599  0.09293413     0.00310
C22         C  0.98130778  0.68687122  0.04963458    -0.11870
C23         C  0.94370711  0.68778354  0.02643336     0.02800
C24         C  0.90609869  0.69010974  0.04987466    -0.11290
H25         H  0.94430764  0.70616157  0.14609770     0.08400
H26         H  0.01080716  0.68126146  0.03510971     0.05930
H27         H  0.87620050  0.68775154  0.03552163     0.05770
C28         C  0.98324123  0.23735915  0.90971490     0.02810
C29         C  0.94572634  0.23850968  0.88976863    -0.13340
C30         C  0.90885595  0.23615049  0.91107906     0.00310
C31         C  0.90902930  0.23644843  0.95481411    -0.11870
C32         C  0.94703763  0.23906517  0.97734119     0.02800
C33         C  0.98438125  0.23860367  0.95338583    -0.11290
H34         H  0.94523766  0.23987103  0.85618911     0.08400
H35         H  0.87955660  0.23419237  0.97031384     0.05930
H36         H  0.01438753  0.23938187  0.96769747     0.05770
C37         C  0.66482512  0.86951932  0.03326115     0.02810
C38         C  0.66582682  0.91343947  0.03500627    -0.13340
C39         C  0.66120929  0.93783406  0.99827920     0.00310
C40         C  0.65725051  0.91563597  0.96019980    -0.11870
C41         C  0.65668137  0.87203756  0.95938896     0.02800
C42         C  0.65899353  0.85007498  0.99571984    -0.11290
H43         H  0.67076678  0.92775245  0.06473648     0.08400
H44         H  0.65438823  0.93117388  0.93090675     0.05930
H45         H  0.65795031  0.81645956  0.99444050     0.05770
C46         C  0.22782380  0.05351406  0.03536399     0.02810
C47         C  0.22613284  0.00983381  0.03511887    -0.13340
C48         C  0.22172446  0.98720184  0.99733767     0.00310
C49         C  0.21839297  0.01127043  0.96022015    -0.11870
C50         C  0.21973139  0.05508853  0.96151444     0.02800
C51         C  0.22459062  0.07509901  0.99881489    -0.11290
H52         H  0.22875910  0.99445664  0.06454030     0.08400
H53         H  0.21441729  0.99698685  0.93037106     0.05930
H54         H  0.22503074  0.10875104  0.99950731     0.05770
C55         C  0.90747445  0.68173129  0.91196482     0.02810
C56         C  0.90645836  0.68407632  0.95555631    -0.13340
C57         C  0.94390112  0.68545456  0.97897677     0.00310
C58         C  0.98169561  0.68658697  0.95580754    -0.11870
C59         C  0.98177712  0.68336748  0.91225299     0.02800
C60         C  0.94483312  0.67879902  0.89155561    -0.11290
H61         H  0.87648024  0.68556664  0.97010087     0.08400
H62         H  0.01117886  0.69092303  0.97056356     0.05930
H63         H  0.94502456  0.67562316  0.85809550     0.05770
C64         C  0.91146166  0.25147219  0.09194823     0.02810
C65         C  0.91072289  0.24905773  0.04825216    -0.13340
C66         C  0.94771930  0.24217562  0.02479845     0.00310
C67         C  0.98524496  0.23833595  0.04782611    -0.11870
C68         C  0.98520587  0.24216838  0.09134596     0.02800
C69         C  0.94866077  0.24866594  0.11233152    -0.11290
H70         H  0.88109280  0.25228356  0.03350387     0.08400
H71         H  0.01444895  0.23200018  0.03297995     0.05930
H72         H  0.94911550  0.24962421  0.14592911     0.05770
C73         C  0.85258872  0.99178405  0.29691132     0.02810
C74         C  0.83218481  0.95543450  0.28833684    -0.13340
C75         C  0.85230040  0.91784692  0.28726044     0.00310
C76         C  0.89604128  0.91677330  0.28940498    -0.11870
C77         C  0.91955042  0.95416777  0.29421941     0.02800
C78         C  0.89627322  0.99160508  0.29916137    -0.11290
H79         H  0.79912475  0.95623534  0.28267854     0.08400
H80         H  0.91077877  0.88696896  0.28680417     0.05930
H81         H  0.91111102  0.02097296  0.30445206     0.05770
C82         C  0.03431601  0.92315969  0.72594385     0.02810
C83         C  0.99078168  0.92328095  0.72885566    -0.13340
C84         C  0.96798671  0.96122876  0.72725589     0.00310
C85         C  0.99181995  0.99852187  0.72426565    -0.11870
C86         C  0.03525894  0.99724162  0.72058696     0.02800
C87         C  0.05542669  0.95974623  0.72000252    -0.11290
H88         H  0.97582201  0.89377464  0.73310823     0.08400
H89         H  0.97771743  0.02879522  0.72482482     0.05930
H90         H  0.08894238  0.95920255  0.71743350     0.05770
C91         C  0.85439100  0.00022922  0.73111534     0.02810
C92         C  0.89791801  0.99998372  0.72986905    -0.13340
C93         C  0.92050642  0.96193190  0.72934132     0.00310
C94         C  0.89654347  0.92460061  0.73034039    -0.11870
C95         C  0.85289155  0.92570505  0.73243898     0.02800
C96         C  0.83279883  0.96339271  0.73157588    -0.11290
H97         H  0.91310617  0.02975004  0.72938832     0.08400
H98         H  0.91078136  0.89447444  0.72948169     0.05930
H99         H  0.79922895  0.96415904  0.73127103     0.05770
C100        C  0.03457068  0.91836580  0.28747084     0.02810
C101        C  0.99098674  0.91707646  0.29113433    -0.13340
C102        C  0.96724540  0.95453146  0.29298095     0.00310
C103        C  0.99023532  0.99257940  0.29267873    -0.11870
C104        C  0.03386014  0.99283877  0.28915810     0.02800
C105        C  0.05462608  0.95583610  0.28502113    -0.11290
H106        H  0.97657350  0.88701128  0.29254358     0.08400
H107        H  0.97524164  0.02223883  0.29481459     0.05930
H108        H  0.08794718  0.95603373  0.28050149     0.05770
C109        C  0.40519593  0.36733814  0.20890543     0.02810
C110        C  0.44211516  0.34597013  0.21010011    -0.13340
C111        C  0.47958536  0.36563811  0.20499521     0.00310
C112        C  0.48079289  0.40945318  0.20407359    -0.11870
C113        C  0.44369385  0.43355228  0.20502169     0.02800
C114        C  0.40557588  0.41106318  0.20617227    -0.11290
H115        H  0.44159047  0.31270459  0.21491270     0.08400
H116        H  0.51083811  0.42382060  0.20300798     0.05930
H117        H  0.37617438  0.42671559  0.20460715     0.05770
O118        O  0.68382776  0.15325224  0.19571654    -0.85670
O119        O  0.69977733  0.12702646  0.27206278    -0.82710
C120        C  0.73953045  0.12730666  0.27159980     0.97790
O121        O  0.75815868  0.16074680  0.27009235    -0.82750
O122        O  0.78093532  0.23771080  0.25312340    -0.85390
C123        C  0.78325106  0.23537973  0.21351311     1.02320
O124        O  0.75132818  0.23136168  0.19278206    -0.78150
O125        O  0.67570297  0.21306979  0.16568501    -0.78340
C126        C  0.67965035  0.17357996  0.16353905     1.02270
O127        O  0.61656389  0.21179868  0.22181193    -0.85660
O128        O  0.63679112  0.18880562  0.29778511    -0.82730
C129        C  0.65476726  0.18570985  0.33138894     0.97810
O130        O  0.69442181  0.18395834  0.33224415    -0.82760
O131        O  0.71271368  0.26106895  0.31080229    -0.85360
C132        C  0.71878464  0.29429211  0.29281644     1.02290
O133        O  0.72364983  0.29442957  0.25336897    -0.78180
O134        O  0.64790220  0.27101533  0.23090584    -0.78330
C135        C  0.61532995  0.25144784  0.22617227     1.02250
Cr136      Cr  0.66125698  0.17227463  0.24685153     1.93740
Cr137      Cr  0.73453925  0.21093999  0.28943232     1.93210
Cr138      Cr  0.69959442  0.25032931  0.21269915     1.39100
O139        O  0.69836223  0.21115487  0.24977575    -1.23420
C140        C  0.40503176  0.37269975  0.77202745     0.02810
C141        C  0.44208671  0.35195550  0.76921901    -0.13340
C142        C  0.47928872  0.37180835  0.77610437     0.00310
C143        C  0.47963151  0.41528726  0.78162937    -0.11870
C144        C  0.44232077  0.43894181  0.77956740     0.02800
C145        C  0.40461731  0.41614431  0.77592834    -0.11290
H146        H  0.44160620  0.31879110  0.76359617     0.08400
H147        H  0.50889016  0.42983566  0.78820563     0.05930
H148        H  0.37485015  0.43106149  0.77610919     0.05770
C149        C  0.53708569  0.17431793  0.53785412     0.02810
C150        C  0.55800056  0.17108866  0.50073175    -0.13340
C151        C  0.53773243  0.16325922  0.46409737     0.00310
C152        C  0.49397724  0.16208593  0.46375973    -0.11870
C153        C  0.47052099  0.16762491  0.50092257     0.02800
C154        C  0.49347213  0.17341030  0.53825907    -0.11290
H155        H  0.59135740  0.17490878  0.50046307     0.08400
H156        H  0.47907596  0.15692936  0.43443812     0.05930
H157        H  0.47838810  0.17781943  0.56770393     0.05770
O158        O  0.61371634  0.21485541  0.77553305    -0.85670
O159        O  0.63703620  0.19589800  0.69906902    -0.82710
C160        C  0.65696617  0.19278840  0.66626648     0.97790
O161        O  0.69633002  0.18952698  0.66701052    -0.82750
O162        O  0.71606353  0.26592208  0.69211555    -0.85390
C163        C  0.72036179  0.29801206  0.71291387     1.02320
O164        O  0.72377783  0.29615998  0.75219630    -0.78150
O165        O  0.64679971  0.27368157  0.77116173    -0.78340
C166        C  0.61353120  0.25433635  0.77226692     1.02270
O167        O  0.67687613  0.15397088  0.80245747    -0.85660
O168        O  0.69507924  0.13030189  0.72572883    -0.82730
C169        C  0.73456849  0.12859832  0.72684414     0.97810
O170        O  0.75564447  0.16073837  0.72890797    -0.82760
O171        O  0.78066557  0.23684450  0.74972493    -0.85360
C172        C  0.78200776  0.23469037  0.78923889     1.02290
O173        O  0.74969148  0.23106343  0.80984792    -0.78180
O174        O  0.67289607  0.21361941  0.83431726    -0.78330
C175        C  0.67565153  0.17418213  0.83521416     1.02250
Cr176      Cr  0.65801122  0.17593937  0.75074848     1.93740
Cr177      Cr  0.73491421  0.21335310  0.71179975     1.93210
Cr178      Cr  0.69815388  0.25128390  0.78958251     1.39100
O179        O  0.69716155  0.21332848  0.75081581    -1.23420
C180        C  0.74381882  0.42557742  0.41004456     0.02810
C181        C  0.73643170  0.46219849  0.38972862    -0.13340
C182        C  0.73469028  0.49963121  0.41034406     0.00310
C183        C  0.73562108  0.50002106  0.45411294    -0.11870
C184        C  0.73891368  0.46232951  0.47717123     0.02800
C185        C  0.74431531  0.42515518  0.45368389    -0.11290
H186        H  0.73188146  0.46152272  0.35648597     0.08400
H187        H  0.73343669  0.52967009  0.46920829     0.05930
H188        H  0.74865185  0.39554369  0.46828188     0.05770
C189        C  0.48176367  0.54725475  0.19224946     0.02810
C190        C  0.48179294  0.50361739  0.19539535    -0.13340
C191        C  0.44463717  0.48114318  0.20395670     0.00310
C192        C  0.40855972  0.50527800  0.21259734    -0.11870
C193        C  0.40902654  0.54900459  0.20894422     0.02800
C194        C  0.44512473  0.56862835  0.19686814    -0.11290
H195        H  0.51105754  0.48822367  0.19129953     0.08400
H196        H  0.38031809  0.49082915  0.22302101     0.05930
H197        H  0.44548848  0.60211225  0.19415437     0.05770
O198        O  0.71908312  0.62864870  0.25038531    -0.85670
O199        O  0.64272797  0.64805053  0.22575646    -0.82710
C200        C  0.60970916  0.66672731  0.21974981     0.97790
O201        O  0.60956468  0.70629094  0.21584443    -0.82750
O202        O  0.62693242  0.73158777  0.29286979    -0.85390
C203        C  0.64442852  0.73630732  0.32666495     1.02320
O204        O  0.68389578  0.73894137  0.32792149    -0.78150
O205        O  0.70566222  0.66150868  0.30791754    -0.78340
C206        C  0.71274012  0.62841148  0.28951617     1.02270
O207        O  0.74648195  0.69225179  0.19066916    -0.85660
O208        O  0.67047966  0.70576055  0.16098902    -0.82730
C209        C  0.67094845  0.74531199  0.15858297     0.97810
O210        O  0.67446696  0.76641504  0.19041387    -0.82760
O211        O  0.68698741  0.79511523  0.26602071    -0.85360
C212        C  0.72654001  0.79660885  0.26584498     1.02290
O213        O  0.74713494  0.76429060  0.26705241    -0.78180
O214        O  0.77399505  0.68933418  0.25229748    -0.78330
C215        C  0.77762407  0.69346414  0.21307572     1.02250
Cr216      Cr  0.69458004  0.67090077  0.20909053     1.93740
Cr217      Cr  0.65162894  0.74767275  0.24150354     1.93210
Cr218      Cr  0.72551971  0.71313035  0.28662399     1.39100
O219        O  0.69036883  0.71049608  0.24592880    -1.23420
C220        C  0.53483087  0.74222486  0.54149402     0.02810
C221        C  0.55589679  0.74493510  0.50440645    -0.13340
C222        C  0.53577541  0.75428291  0.46801157     0.00310
C223        C  0.49211171  0.75679927  0.46807659    -0.11870
C224        C  0.46838384  0.75034670  0.50488145     0.02800
C225        C  0.49122024  0.74415493  0.54217356    -0.11290
H226        H  0.58907565  0.74006907  0.50420989     0.08400
H227        H  0.47752349  0.76374696  0.43903926     0.05930
H228        H  0.47615555  0.74051694  0.57171867     0.05770
C229        C  0.73073537  0.49710936  0.59230189     0.02810
C230        C  0.73150554  0.45947384  0.61225315    -0.13340
C231        C  0.73304537  0.42283556  0.59060563     0.00310
C232        C  0.73490781  0.42324102  0.54704296    -0.11870
C233        C  0.73624958  0.46147843  0.52464316     0.02800
C234        C  0.73381336  0.49867327  0.54871699    -0.11290
H235        H  0.72993191  0.45860103  0.64583851     0.08400
H236        H  0.73477764  0.39362077  0.53173105     0.05930
H237        H  0.73402034  0.52887882  0.53463755     0.05770
C238        C  0.48077380  0.55287822  0.78203515     0.02810
C239        C  0.48048510  0.50926977  0.77853916    -0.13340
C240        C  0.44282247  0.48633027  0.78213528     0.00310
C241        C  0.40565108  0.50986856  0.78654432    -0.11870
C242        C  0.40685261  0.55338527  0.78998336     0.02800
C243        C  0.44427477  0.57376409  0.78939397    -0.11290
H244        H  0.50951701  0.49416587  0.77200451     0.08400
H245        H  0.37561898  0.49545748  0.78722903     0.05930
H246        H  0.44468899  0.60731416  0.79198257     0.05770
O247        O  0.67844195  0.76944937  0.80070375    -0.85670
O248        O  0.69737575  0.79093383  0.72356026    -0.82710
C249        C  0.73685823  0.79193149  0.72462482     0.97790
O250        O  0.75721705  0.75940108  0.72773224    -0.82750
O251        O  0.78004538  0.68300910  0.75056808    -0.85390
C252        C  0.78123296  0.68585455  0.79001282     1.02320
O253        O  0.74898327  0.69098336  0.81048551    -0.78150
O254        O  0.67159066  0.71070543  0.83361342    -0.78340
C255        C  0.67434799  0.75013666  0.83370065     1.02270
O256        O  0.61395138  0.71001441  0.77512525    -0.85660
O257        O  0.63789601  0.72647181  0.69792182    -0.82730
C258        C  0.65825066  0.72804491  0.66527036     0.97810
O259        O  0.69768727  0.72989189  0.66615868    -0.82760
O260        O  0.71568047  0.65376758  0.69337569    -0.85360
C261        C  0.72017268  0.62229013  0.71497616     1.02290
O262        O  0.72203064  0.62509662  0.75429260    -0.78180
O263        O  0.64511310  0.64993316  0.77189161    -0.78330
C264        C  0.61271211  0.67045090  0.77482763     1.02250
Cr265      Cr  0.65923237  0.74689769  0.74936534     1.93740
Cr266      Cr  0.73533175  0.70658957  0.71181610     1.93210
Cr267      Cr  0.69694564  0.67150031  0.79013887     1.39100
O268        O  0.69726930  0.70845800  0.75046774    -1.23420
C269        C  0.35313672  0.74556685  0.53950201     0.02810
C270        C  0.39672618  0.74710174  0.54108565    -0.13340
C271        C  0.42086010  0.74990936  0.50401507     0.00310
C272        C  0.39843041  0.75118886  0.46588727    -0.11870
C273        C  0.35477912  0.75175440  0.46547483     0.02800
C274        C  0.33317838  0.74852421  0.50209509    -0.11290
H275        H  0.41078422  0.74580490  0.57119645     0.08400
H276        H  0.41381641  0.75136309  0.43629115     0.05930
H277        H  0.29959871  0.74742914  0.50142243     0.05770
C278        C  0.17598081  0.49969764  0.58898878     0.02810
C279        C  0.17061953  0.46271406  0.60972960    -0.13340
C280        C  0.15839907  0.42713310  0.58935773     0.00310
C281        C  0.15510935  0.42749826  0.54578873    -0.11870
C282        C  0.16272959  0.46430412  0.52270987     0.02800
C283        C  0.17210432  0.50093755  0.54553187    -0.11290
H284        H  0.17482733  0.46202252  0.64300223     0.08400
H285        H  0.14614271  0.39915918  0.53043509     0.05930
H286        H  0.17708062  0.53020965  0.53019703     0.05770
O287        O  0.19079669  0.73594793  0.66700860    -0.85670
O288        O  0.17327685  0.65904726  0.69119881    -0.82710
C289        C  0.17344564  0.62622270  0.71124546     0.97790
O290        O  0.17431513  0.62670584  0.75069822    -0.82750
O291        O  0.25049785  0.65368514  0.76494788    -0.85390
C292        C  0.28235920  0.67484853  0.76843819     1.02320
O293        O  0.27994269  0.71412029  0.77159237    -0.78150
O294        O  0.25209488  0.73083417  0.69518369    -0.78340
C295        C  0.23014916  0.73449159  0.66389138     1.02270
O296        O  0.13500844  0.76272538  0.73395627    -0.85660
O297        O  0.11271925  0.68564545  0.75368488    -0.82730
C298        C  0.11357040  0.68593720  0.79317997     0.97810
O299        O  0.14703727  0.68807129  0.81198453    -0.82760
O300        O  0.22396531  0.71130975  0.83141072    -0.85360
C301        C  0.22157394  0.75085745  0.83267939     1.02290
O302        O  0.21630509  0.77134689  0.80058162    -0.78180
O303        O  0.19406324  0.79437335  0.72431997    -0.78330
C304        C  0.15478974  0.79520939  0.72816159     1.02250
Cr305      Cr  0.15538278  0.71083618  0.71375972     1.93740
Cr306      Cr  0.19881921  0.67236724  0.78749280     1.93210
Cr307      Cr  0.23325009  0.75023643  0.74796017     1.39100
O308        O  0.19551560  0.71121178  0.74994251    -1.23420
C309        C  0.35587005  0.17546817  0.46459135     0.02810
C310        C  0.39957417  0.17164611  0.46346400    -0.13340
C311        C  0.42307596  0.16846917  0.50085787     0.00310
C312        C  0.40015551  0.16648160  0.53862071    -0.11870
C313        C  0.35688773  0.17091898  0.53894030     0.02800
C314        C  0.33612305  0.17762885  0.50252533    -0.11290
H315        H  0.41443323  0.17128491  0.43359161     0.08400
H316        H  0.41499290  0.16125382  0.56793501     0.05930
H317        H  0.30303674  0.18324351  0.50383410     0.05770
O318        O  0.24546418  0.26997464  0.76118520    -0.85670
O319        O  0.16841693  0.29187176  0.74122588    -0.82710
C320        C  0.16995775  0.28945193  0.70177449     0.97790
O321        O  0.17226849  0.25499203  0.68469594    -0.82750
O322        O  0.19670528  0.17771650  0.66813641    -0.85390
C323        C  0.23618498  0.18152760  0.66788858     1.02320
O324        O  0.25540112  0.18661494  0.70069645    -0.78150
O325        O  0.27672483  0.21195578  0.77573354    -0.78340
C326        C  0.27798895  0.25061434  0.76756969     1.02270
O327        O  0.21816431  0.21710388  0.83156601    -0.85660
O328        O  0.14202027  0.23448259  0.80610282    -0.82730
C329        C  0.10938609  0.23346824  0.78595998     0.97810
O330        O  0.11010032  0.22981719  0.74654472    -0.82760
O331        O  0.13738689  0.15286332  0.73423490    -0.85360
C332        C  0.15873461  0.12097840  0.73242441     1.02290
O333        O  0.19798685  0.12349461  0.73014348    -0.78180
O334        O  0.21245556  0.15461784  0.80566839    -0.78330
C335        C  0.21587084  0.17775210  0.83622087     1.02250
Cr336      Cr  0.19370590  0.25088117  0.78296008     1.93740
Cr337      Cr  0.15633503  0.20401540  0.71069137     1.93210
Cr338      Cr  0.23318232  0.17139263  0.75292927     1.39100
O339        O  0.19420720  0.20887510  0.74877338    -1.23420
C340        C  0.16330496  0.42679750  0.40895320     0.02810
C341        C  0.16637118  0.42697265  0.45253130    -0.13340
C342        C  0.16055918  0.46422095  0.47562098     0.00310
C343        C  0.15374826  0.50132898  0.45281581    -0.11870
C344        C  0.15232738  0.50077822  0.40913524     0.02800
C345        C  0.15534064  0.46343005  0.38847384    -0.11290
H346        H  0.17407807  0.39831206  0.46785450     0.08400
H347        H  0.14973601  0.53067591  0.46834400     0.05930
H348        H  0.15347011  0.46309586  0.35498498     0.05770
O349        O  0.14426930  0.69851948  0.19181737    -0.85670
O350        O  0.22128244  0.71344875  0.16717439    -0.82710
C351        C  0.22238532  0.75311112  0.16664509     0.97790
O352        O  0.22088560  0.77300005  0.19960003    -0.82750
O353        O  0.20163136  0.79686163  0.27631961    -0.85390
C354        C  0.16227159  0.79982291  0.27312808     1.02320
O355        O  0.14054448  0.76830649  0.27002014    -0.78150
O356        O  0.11253908  0.69350344  0.25130549    -0.78340
C357        C  0.11149870  0.69768919  0.21200493     1.02270
O358        O  0.16783974  0.63196912  0.25009583    -0.85660
O359        O  0.24556478  0.65206258  0.23042526    -0.82730
C360        C  0.27926415  0.67019188  0.22624476     0.97810
O361        O  0.28056993  0.70979603  0.22573716    -0.82760
O362        O  0.25715074  0.72855243  0.30281531    -0.85360
C363        C  0.23718936  0.73327288  0.33537148     1.02290
O364        O  0.19805641  0.73881204  0.33406068    -0.78180
O365        O  0.17537566  0.66303829  0.30971597    -0.78330
C366        C  0.17085104  0.63052704  0.28954740     1.02250
Cr367      Cr  0.19485194  0.67617174  0.21214761     1.93740
Cr368      Cr  0.23766143  0.74991917  0.25125082     1.93210
Cr369      Cr  0.15891096  0.71575424  0.28907396     1.39100
O370        O  0.19714235  0.71400126  0.25068064    -1.23420
O371        O  0.10912134  0.23386264  0.25551463    -0.85670
O372        O  0.13295757  0.15778080  0.27465266    -0.82710
C373        C  0.15262086  0.12474916  0.27508141     0.97790
O374        O  0.19218002  0.12525466  0.27578145    -0.82750
O375        O  0.20835668  0.15011144  0.19859002    -0.85390
C376        C  0.21145644  0.17073718  0.16627820     1.02320
O377        O  0.21510350  0.21008794  0.16810087    -0.78150
O378        O  0.13840654  0.22785046  0.19447456    -0.78340
C379        C  0.10665860  0.23110438  0.21610459     1.02270
O380        O  0.17556666  0.26169611  0.31159328    -0.85660
O381        O  0.19510069  0.18532544  0.33560005    -0.82730
C382        C  0.23458352  0.18774081  0.33480049     0.97810
O383        O  0.25323610  0.18870449  0.30111545    -0.82760
O384        O  0.27395855  0.20888450  0.22431755    -0.85360
C385        C  0.27532502  0.24835986  0.22808000     1.02290
O386        O  0.24283416  0.26860004  0.23208208    -0.78180
O387        O  0.16621015  0.29237312  0.25222947    -0.78330
C388        C  0.16936172  0.29388843  0.29157128     1.02250
Cr389      Cr  0.15540074  0.20959519  0.29204778     1.93740
Cr390      Cr  0.22966992  0.17041148  0.25005938     1.93210
Cr391      Cr  0.19075030  0.24744176  0.21393981     1.39100
O392        O  0.19188825  0.20904006  0.25206036    -1.23420
C393        C  0.19401284  0.59198507  0.35033240    -0.09480
C394        C  0.16813165  0.59293393  0.31543817     0.06720
C395        C  0.13488302  0.56514448  0.31370133    -0.03240
C396        C  0.12690448  0.53893605  0.34735703    -0.07690
C397        C  0.15320585  0.53790877  0.38219216     0.05840
C398        C  0.18735177  0.56475743  0.38303978    -0.02720
Br399      Br  0.22794472  0.56383664  0.42619716    -0.02410
H400        H  0.21936711  0.61353814  0.35261724     0.09750
H401        H  0.10147515  0.51719685  0.34521602     0.07770
Br402      Br  0.10063956  0.56059225  0.26597670    -0.02840
C403        C  0.19355173  0.39335040  0.34643071    -0.09480
C404        C  0.16810800  0.38986472  0.38197386     0.06720
C405        C  0.14070017  0.35625547  0.38477792    -0.03240
C406        C  0.13912686  0.32731124  0.35269725    -0.07690
C407        C  0.16402635  0.33123413  0.31702636     0.05840
C408        C  0.19093844  0.36502323  0.31377608    -0.02720
Br409      Br  0.22480961  0.37342619  0.26579015    -0.02410
H410        H  0.21427970  0.41953393  0.34325704     0.09750
H411        H  0.11887253  0.30076356  0.35602481     0.07770
Br412      Br  0.10345393  0.34920162  0.43055175    -0.02840
C413        C  0.29545524  0.20891776  0.62949859    -0.09480
C414        C  0.26312119  0.17961144  0.63118112     0.06720
C415        C  0.26525849  0.14459746  0.60557068    -0.03240
C416        C  0.29881687  0.14002141  0.57836996    -0.07690
C417        C  0.33053979  0.17001834  0.57620070     0.05840
C418        C  0.32842609  0.20478899  0.60203095    -0.02720
Br419      Br  0.36812643  0.24888955  0.59902113    -0.02410
H420        H  0.29538265  0.23515440  0.65042262     0.09750
H421        H  0.29943856  0.11372215  0.55754150     0.07770
Br422      Br  0.22463073  0.10148490  0.60832762    -0.02840
C423        C  0.29124421  0.15221004  0.43007643    -0.09480
C424        C  0.32773278  0.17642978  0.42814484     0.06720
C425        C  0.33092935  0.20660001  0.39704184    -0.03240
C426        C  0.29857146  0.21154586  0.36885496    -0.07690
C427        C  0.26192604  0.18776845  0.37137867     0.05840
C428        C  0.25808925  0.15875157  0.40326798    -0.02720
Br429      Br  0.20846173  0.12775297  0.41216649    -0.02410
H430        H  0.28763146  0.12927794  0.45425670     0.09750
H431        H  0.30224258  0.23404016  0.34426340     0.07770
Br432      Br  0.37737661  0.24328075  0.39258139    -0.02840
C433        C  0.20811972  0.56647885  0.67881154    -0.09480
C434        C  0.17160922  0.58871798  0.68579130     0.06720
C435        C  0.13882591  0.58465979  0.65742270    -0.03240
C436        C  0.14273780  0.55881599  0.62300562    -0.07690
C437        C  0.17907897  0.53641573  0.61597499     0.05840
C438        C  0.21198786  0.54037784  0.64434411    -0.02720
Br439      Br  0.26261019  0.51030823  0.63720926    -0.02410
H440        H  0.23432076  0.57088691  0.69908709     0.09750
H441        H  0.11650017  0.55464144  0.60269533     0.07770
Br442      Br  0.08813961  0.61482592  0.66414153    -0.02840
C443        C  0.18028862  0.35622880  0.60570265    -0.09480
C444        C  0.15446477  0.38937693  0.61503894     0.06720
C445        C  0.13309007  0.38957842  0.65346726    -0.03240
C446        C  0.13986727  0.35805804  0.68247714    -0.07690
C447        C  0.16695724  0.32545791  0.67354366     0.05840
C448        C  0.18663922  0.32460885  0.63415260    -0.02720
Br449      Br  0.22455486  0.28255707  0.61673855    -0.02410
H450        H  0.19753327  0.35604456  0.57689712     0.09750
H451        H  0.12309074  0.35845921  0.71152734     0.07770
Br452      Br  0.09383330  0.43193549  0.66761051    -0.02840
C453        C  0.32697653  0.71362172  0.40581331    -0.09480
C454        C  0.32888725  0.75070730  0.42794341     0.06720
C455        C  0.29737565  0.78052309  0.42218077    -0.03240
C456        C  0.26470849  0.77277741  0.39487459    -0.07690
C457        C  0.26276495  0.73550207  0.37285767     0.05840
C458        C  0.29452874  0.70589536  0.37853708    -0.02720
Br459      Br  0.29547799  0.65409172  0.34947258    -0.02410
H460        H  0.34981935  0.68973105  0.41119146     0.09750
H461        H  0.24190422  0.79667851  0.38941914     0.07770
Br462      Br  0.29764510  0.83216189  0.45159583    -0.02840
C463        C  0.30032509  0.70572758  0.57763484    -0.09480
C464        C  0.32526334  0.74143647  0.57541394     0.06720
C465        C  0.31336428  0.77679783  0.59776841    -0.03240
C466        C  0.27802860  0.77566967  0.62276128    -0.07690
C467        C  0.25348602  0.73982248  0.62549151     0.05840
C468        C  0.26461735  0.70484334  0.60216908    -0.02720
Br469      Br  0.23234013  0.65503922  0.60375264    -0.02410
H470        H  0.30777554  0.67903286  0.55870810     0.09750
H471        H  0.27075554  0.80230951  0.64185910     0.07770
Br472      Br  0.34367490  0.82767497  0.59378705    -0.02840
C473        C  0.51602411  0.61216711  0.74832466    -0.09480
C474        C  0.51768217  0.57952386  0.77729487     0.06720
C475        C  0.54860659  0.58006733  0.80752995    -0.03240
C476        C  0.57691139  0.61271106  0.80849412    -0.07690
C477        C  0.57512324  0.64543034  0.77975733     0.05840
C478        C  0.54417742  0.64505433  0.74956296    -0.02720
Br479      Br  0.54007392  0.68776366  0.70870605    -0.02410
H480        H  0.49159949  0.61274964  0.72550933     0.09750
H481        H  0.60149256  0.61193153  0.83114875     0.07770
Br482      Br  0.55254336  0.53792017  0.84903130    -0.02840
C483        C  0.35501032  0.58830270  0.74743775    -0.09480
C484        C  0.37055073  0.58073300  0.78703757     0.06720
C485        C  0.36129017  0.60893740  0.81916756    -0.03240
C486        C  0.33611699  0.64335350  0.81155591    -0.07690
C487        C  0.32041978  0.65068754  0.77192917     0.05840
C488        C  0.33038771  0.62289461  0.73974727    -0.02720
Br489      Br  0.31013605  0.63074826  0.68469877    -0.02410
H490        H  0.36369363  0.56827448  0.72193909     0.09750
H491        H  0.32708237  0.66320779  0.83706234     0.07770
Br492      Br  0.38294212  0.60164384  0.87377299    -0.02840
C493        C  0.69166257  0.53501549  0.64600760    -0.09480
C494        C  0.72681041  0.53316157  0.62014843     0.06720
C495        C  0.76176648  0.55666008  0.63062880    -0.03240
C496        C  0.76084901  0.58207138  0.66567744    -0.07690
C497        C  0.72567362  0.58408892  0.69131577     0.05840
C498        C  0.69104786  0.55988985  0.68143894    -0.02720
Br499      Br  0.64187033  0.56107264  0.71478881    -0.02410
H500        H  0.66518915  0.51554623  0.63945688     0.09750
H501        H  0.78710887  0.60193890  0.67194482     0.07770
Br502      Br  0.81179362  0.55386505  0.59878876    -0.02840
C503        C  0.57608630  0.69952374  0.58945209    -0.09480
C504        C  0.56159861  0.73879001  0.57816505     0.06720
C505        C  0.58332504  0.77408071  0.59185007    -0.03240
C506        C  0.61861104  0.76980194  0.61636418    -0.07690
C507        C  0.63308728  0.73057198  0.62775456     0.05840
C508        C  0.61108274  0.69530191  0.61446714    -0.02720
Br509      Br  0.62700941  0.64074723  0.63116002    -0.02410
H510        H  0.56087960  0.67205939  0.57769538     0.09750
H511        H  0.63361822  0.79730916  0.62831016     0.07770
Br512      Br  0.56614057  0.82884126  0.57685323    -0.02840
C513        C  0.62853402  0.76655181  0.39607533    -0.09480
C514        C  0.61677656  0.74109860  0.36310842     0.06720
C515        C  0.57586594  0.72466566  0.36300322    -0.03240
C516        C  0.54937906  0.73147348  0.39634139    -0.07690
C517        C  0.56147146  0.75573680  0.42980567     0.05840
C518        C  0.60101231  0.77489184  0.42863739    -0.02720
Br519      Br  0.61850315  0.81451521  0.46933896    -0.02410
H520        H  0.65861233  0.78130048  0.39578407     0.09750
H521        H  0.51943772  0.71642049  0.39664329     0.07770
Br522      Br  0.55246774  0.69216035  0.31912883    -0.02840
C523        C  0.30764659  0.60571508  0.19709095    -0.09480
C524        C  0.31495805  0.64231852  0.21987430     0.06720
C525        C  0.35212539  0.64616835  0.24164065    -0.03240
C526        C  0.38037817  0.61327022  0.24125228    -0.07690
C527        C  0.37340110  0.57691845  0.21764117     0.05840
C528        C  0.33630363  0.57346660  0.19560388    -0.02720
Br529      Br  0.32393353  0.52686061  0.16092856    -0.02410
H530        H  0.27896118  0.60202389  0.18028259     0.09750
H531        H  0.40907611  0.61687332  0.25802684     0.07770
Br532      Br  0.36580134  0.69531376  0.27200581    -0.02840
C533        C  0.54224236  0.57222525  0.23025955    -0.09480
C534        C  0.51938700  0.57338090  0.19378868     0.06720
C535        C  0.52468990  0.60748087  0.16677557    -0.03240
C536        C  0.55140294  0.64013599  0.17727210    -0.07690
C537        C  0.57360994  0.63925794  0.21435418     0.05840
C538        C  0.56910910  0.60433899  0.24058469    -0.02720
Br539      Br  0.59916259  0.59799748  0.29126216    -0.02410
H540        H  0.53758747  0.54712399  0.25199717     0.09750
H541        H  0.55618453  0.66525990  0.15561681     0.07770
Br542      Br  0.49585592  0.61047741  0.11518069    -0.02840
C543        C  0.75709257  0.53778449  0.34762113    -0.09480
C544        C  0.73133246  0.53649094  0.38305161     0.06720
C545        C  0.69749514  0.56361167  0.38509420    -0.03240
C546        C  0.69081897  0.59157790  0.35285057    -0.07690
C547        C  0.71587986  0.59191048  0.31692072     0.05840
C548        C  0.74837997  0.56345659  0.31405998    -0.02720
Br549      Br  0.78076676  0.55684561  0.26500144    -0.02410
H550        H  0.78270201  0.51635758  0.34482417     0.09750
H551        H  0.66570394  0.61353906  0.35597692     0.07770
Br552      Br  0.65781004  0.56216411  0.42931106    -0.02840
C553        C  0.68826996  0.34646684  0.66505946    -0.09480
C554        C  0.72327378  0.33585420  0.68828727     0.06720
C555        C  0.76223932  0.35020695  0.67528422    -0.03240
C556        C  0.76563451  0.37503635  0.63996068    -0.07690
C557        C  0.73057597  0.38559995  0.61671824     0.05840
C558        C  0.69159681  0.37129420  0.62985577    -0.02720
Br559      Br  0.64186989  0.38647655  0.60158693    -0.02410
H560        H  0.65835022  0.33380614  0.67333100     0.09750
H561        H  0.79556230  0.38755310  0.63145673     0.07770
Br562      Br  0.81173283  0.33478350  0.70374832    -0.02840
C563        C  0.59474244  0.14751617  0.57974688    -0.09480
C564        C  0.56390134  0.17787666  0.57472388     0.06720
C565        C  0.56674580  0.21475214  0.59762231    -0.03240
C566        C  0.60009128  0.22069726  0.62449791    -0.07690
C567        C  0.63131698  0.19056807  0.62887709     0.05840
C568        C  0.62823155  0.15368497  0.60615114    -0.02720
Br569      Br  0.66725055  0.10964769  0.61185469    -0.02410
H570        H  0.59341021  0.11922974  0.56173598     0.09750
H571        H  0.60101626  0.24854351  0.64321782     0.07770
Br572      Br  0.52661994  0.25809522  0.59266817    -0.02840
C573        C  0.36387865  0.31809670  0.80599780    -0.09480
C574        C  0.36825513  0.34573532  0.77254532     0.06720
C575        C  0.34629041  0.33805516  0.73604704    -0.03240
C576        C  0.32009519  0.30373889  0.73365977    -0.07690
C577        C  0.31542351  0.27627251  0.76718198     0.05840
C578        C  0.33777070  0.28360356  0.80354581    -0.02720
Br579      Br  0.33202504  0.24864288  0.85109480    -0.02410
H580        H  0.38211728  0.32266010  0.83366013     0.09750
H581        H  0.30197686  0.29923036  0.70588957     0.07770
Br582      Br  0.35222416  0.37284412  0.68839809    -0.02840
C583        C  0.51267580  0.30689164  0.80044032    -0.09480
C584        C  0.51611491  0.34436476  0.77803593     0.06720
C585        C  0.55013779  0.34966169  0.75151477    -0.03240
C586        C  0.57985121  0.31846967  0.74854732    -0.07690
C587        C  0.57630210  0.28094690  0.77075187     0.05840
C588        C  0.54133953  0.27482373  0.79570409    -0.02720
Br589      Br  0.52992290  0.22337449  0.82250490    -0.02410
H590        H  0.48609045  0.30164993  0.82024904     0.09750
H591        H  0.60632471  0.32372546  0.72862843     0.07770
Br592      Br  0.55659615  0.39724202  0.71659091    -0.02840
C593        C  0.75607387  0.35817202  0.31497335    -0.09480
C594        C  0.72367184  0.33010243  0.32104413     0.06720
C595        C  0.70248494  0.33053468  0.35985363    -0.03240
C596        C  0.71239820  0.35951416  0.39004985    -0.07690
C597        C  0.74379146  0.38815392  0.38358886     0.05840
C598        C  0.76673010  0.38650245  0.34610433    -0.02720
Br599      Br  0.81330620  0.42207477  0.33632729    -0.02410
H600        H  0.77431456  0.35687032  0.28685798     0.09750
H601        H  0.69410484  0.36084214  0.41817583     0.07770
Br602      Br  0.65955179  0.29245257  0.37548583    -0.02840
C603        C  0.63281836  0.14991107  0.39636031    -0.09480
C604        C  0.62656118  0.18140821  0.36741036     0.06720
C605        C  0.58777723  0.20235181  0.36759235    -0.03240
C606        C  0.55773745  0.19324534  0.39714810    -0.07690
C607        C  0.56434966  0.16275150  0.42665186     0.05840
C608        C  0.60188267  0.13999884  0.42531308    -0.02720
Br609      Br  0.61191509  0.09447784  0.46201986    -0.02410
H610        H  0.66093510  0.13174580  0.39530263     0.09750
H611        H  0.52960308  0.21142064  0.39813012     0.07770
Br612      Br  0.57228047  0.24400118  0.32843439    -0.02840
C613        C  0.31568014  0.30748753  0.25357004    -0.09480
C614        C  0.31295151  0.27395954  0.22568463     0.06720
C615        C  0.33837341  0.27387772  0.19049316    -0.03240
C616        C  0.36500909  0.30728574  0.18325379    -0.07690
C617        C  0.36782765  0.34083559  0.21120904     0.05840
C618        C  0.34262652  0.34065894  0.24663661    -0.02720
Br619      Br  0.34484857  0.38404400  0.28716033    -0.02410
H620        H  0.29559746  0.30842799  0.28045715     0.09750
H621        H  0.38517569  0.30627668  0.15644290     0.07770
Br622      Br  0.33710380  0.22960934  0.15103227    -0.02840
C623        C  0.54616028  0.34594669  0.23603920    -0.09480
C624        C  0.51660280  0.33847352  0.20593801     0.06720
C625        C  0.51868304  0.30089537  0.18306454    -0.03240
C626        C  0.54871775  0.27091986  0.19226034    -0.07690
C627        C  0.57817155  0.27827005  0.22293872     0.05840
C628        C  0.57693908  0.31707700  0.24421895    -0.02720
Br629      Br  0.61650168  0.33487337  0.28462249    -0.02410
H630        H  0.54473904  0.37415020  0.25417413     0.09750
H631        H  0.55040362  0.24290653  0.17387874     0.07770
Br632      Br  0.48251946  0.28986223  0.13742191    -0.02840
C633        C  0.07575672  0.86935353  0.24623060    -0.09480
C634        C  0.06285237  0.88252016  0.28552476     0.06720
C635        C  0.08858538  0.87407976  0.31969580    -0.03240
C636        C  0.12540058  0.85172226  0.31445812    -0.07690
C637        C  0.13795202  0.83805658  0.27520709     0.05840
C638        C  0.11279277  0.84757228  0.24093387    -0.02720
Br639      Br  0.12709606  0.82926621  0.18625086    -0.02410
H640        H  0.05791427  0.87782096  0.21926035     0.09750
H641        H  0.14309532  0.84301960  0.34145304     0.07770
Br642      Br  0.07532473  0.89440188  0.37389871    -0.02840
C643        C  0.09658689  0.02982020  0.31374756    -0.09480
C644        C  0.06077066  0.03018501  0.28874371     0.06720
C645        C  0.05796393  0.05992418  0.25729734    -0.03240
C646        C  0.09001759  0.08840922  0.25181683    -0.07690
C647        C  0.12620908  0.08740261  0.27604199     0.05840
C648        C  0.12953069  0.05712038  0.30679704    -0.02720
Br649      Br  0.17799821  0.05154969  0.33991641    -0.02410
H650        H  0.09990036  0.00639273  0.33746078     0.09750
H651        H  0.08627991  0.11226246  0.22872126     0.07770
Br652      Br  0.01259806  0.06178590  0.21933533    -0.02840
C653        C  0.82515399  0.86277353  0.69807719    -0.09480
C654        C  0.82575002  0.88868291  0.73276983     0.06720
C655        C  0.79404581  0.88454670  0.76285838    -0.03240
C656        C  0.76222347  0.85573795  0.75741744    -0.07690
C657        C  0.76158718  0.83000402  0.72267069     0.05840
C658        C  0.79377210  0.83333863  0.69313383    -0.02720
Br659      Br  0.79659499  0.79746918  0.64582755    -0.02410
H660        H  0.84853812  0.86614582  0.67424651     0.09750
H661        H  0.73928388  0.85174727  0.78161158     0.07770
Br662      Br  0.79347063  0.91663325  0.81280549    -0.02840
C663        C  0.81724371  0.05490688  0.69317765    -0.09480
C664        C  0.82848647  0.03773730  0.73118883     0.06720
C665        C  0.80516981  0.04775070  0.76669375    -0.03240
C666        C  0.77041381  0.07329363  0.76361960    -0.07690
C667        C  0.75891862  0.09039735  0.72555832     0.05840
C668        C  0.78356864  0.08189618  0.69040421    -0.02720
Br669      Br  0.77447127  0.10890119  0.63854049    -0.02410
H670        H  0.83430661  0.04673260  0.66546006     0.09750
H671        H  0.75398187  0.08208129  0.79153057     0.07770
Br672      Br  0.82087194  0.02796299  0.82017089    -0.02840
C673        C  0.12326472  0.85679647  0.75955646    -0.09480
C674        C  0.12932531  0.83237291  0.72432686     0.06720
C675        C  0.10038326  0.83455778  0.69183211    -0.03240
C676        C  0.06673021  0.86157943  0.69442938    -0.07690
C677        C  0.06080276  0.88624752  0.72951868     0.05840
C678        C  0.08944771  0.88360464  0.76232579    -0.02720
Br679      Br  0.08402316  0.91700882  0.81118657    -0.02410
H680        H  0.14381730  0.85364984  0.78573747     0.09750
H681        H  0.04600046  0.86445722  0.66837198     0.07770
Br682      Br  0.10505410  0.80002590  0.64369878    -0.02840
C683        C  0.07687877  0.04580959  0.76139409    -0.09480
C684        C  0.06291952  0.03344708  0.72230265     0.06720
C685        C  0.08589716  0.04509737  0.68705497    -0.03240
C686        C  0.12125194  0.06978825  0.69119477    -0.07690
C687        C  0.13489812  0.08254119  0.73030392     0.05840
C688        C  0.11244097  0.07004264  0.76553397    -0.02720
Br689      Br  0.12857231  0.08683946  0.81997049    -0.02410
H690        H  0.06096762  0.03511592  0.78893269     0.09750
H691        H  0.13691398  0.08082732  0.66365549     0.07770
Br692      Br  0.07025239  0.02720417  0.63277758    -0.02840
C693        C  0.79115813  0.87932800  0.31245251    -0.09480
C694        C  0.82400363  0.88182619  0.28357948     0.06720
C695        C  0.82068861  0.85960967  0.24639769    -0.03240
C696        C  0.78512410  0.83611973  0.23858251    -0.07690
C697        C  0.75211331  0.83416042  0.26723909     0.05840
C698        C  0.75535327  0.85647923  0.30425577    -0.02720
Br699      Br  0.71239608  0.85504350  0.34523706    -0.02410
H700        H  0.79256438  0.89720932  0.34077868     0.09750
H701        H  0.78411382  0.81732168  0.21082015     0.07770
Br702      Br  0.86359445  0.86060574  0.20533680    -0.02840
C703        C  0.83623315  0.06057554  0.26888276    -0.09480
C704        C  0.82641555  0.02954619  0.29688864     0.06720
C705        C  0.78712117  0.03058341  0.31673123    -0.03240
C706        C  0.75753873  0.06030393  0.30557753    -0.07690
C707        C  0.76703884  0.09083707  0.27641564     0.05840
C708        C  0.80782038  0.09135226  0.25929307    -0.02720
Br709      Br  0.82931785  0.13349786  0.22355860    -0.02410
H710        H  0.86594125  0.06023147  0.25327375     0.09750
H711        H  0.72794562  0.06086173  0.32136097     0.07770
Br712      Br  0.77288022  0.99294461  0.36044577    -0.02840
C713        C  0.82273724  0.21022599  0.15415511    -0.09480
C714        C  0.82094674  0.23804327  0.18774655     0.06720
C715        C  0.84606041  0.27345263  0.18649611    -0.03240
C716        C  0.87251098  0.27986044  0.15247958    -0.07690
C717        C  0.87460637  0.25123011  0.11931872     0.05840
C718        C  0.84910760  0.21614922  0.12062035    -0.02720
Br719      Br  0.85049366  0.17370412  0.07897184    -0.02410
H720        H  0.80201468  0.18406991  0.15325785     0.09750
H721        H  0.89283710  0.30653248  0.15258043     0.07770
Br722      Br  0.84377437  0.31449813  0.22923142    -0.02840
C723        C  0.03550459  0.27466922  0.13797385    -0.09480
C724        C  0.02151345  0.23838564  0.11849378     0.06720
C725        C  0.03065877  0.19991569  0.13671690    -0.03240
C726        C  0.05399363  0.19823217  0.17306084    -0.07690
C727        C  0.06850602  0.23446837  0.19215125     0.05840
C728        C  0.05875270  0.27291626  0.17431468    -0.02720
Br729      Br  0.07820239  0.32379840  0.19787740    -0.02410
H730        H  0.02669724  0.30460921  0.12578162     0.09750
H731        H  0.06245730  0.16837101  0.18547679     0.07770
Br732      Br  0.01057889  0.14904225  0.11363362    -0.02840
C733        C  0.84881346  0.64865224  0.87568603    -0.09480
C734        C  0.87117235  0.68465161  0.88461149     0.06720
C735        C  0.86713989  0.71926323  0.85819636    -0.03240
C736        C  0.84108326  0.71751356  0.82383905    -0.07690
C737        C  0.81865110  0.68157677  0.81496130     0.05840
C738        C  0.82235547  0.64712098  0.84155550    -0.03440
Br739      Br  0.79030315  0.59781491  0.83327553    -0.02410
H740        H  0.85282124  0.62131940  0.89461913     0.09750
H741        H  0.83673673  0.74501625  0.80519744     0.07770
Br742      Br  0.89735617  0.76954650  0.86760349    -0.02840
C743        C  0.01828601  0.71582911  0.85308716    -0.09480
C744        C  0.01890480  0.68658374  0.88547954     0.06720
C745        C  0.04931245  0.65562573  0.88504978    -0.03240
C746        C  0.07800881  0.65418569  0.85261064    -0.07690
C747        C  0.07675179  0.68283302  0.81979708     0.05840
C748        C  0.04651309  0.71392457  0.82029447    -0.02720
Br749      Br  0.04350259  0.75543609  0.77809704    -0.02410
H750        H  0.99456648  0.73948575  0.85260755     0.09750
H751        H  0.10206938  0.63087583  0.85331995     0.07770
Br752      Br  0.05186444  0.61369723  0.92687307    -0.02840
C753        C  0.18301475  0.11007673  0.92312311    -0.09480
C754        C  0.21721891  0.08321813  0.92552721     0.06720
C755        C  0.25329637  0.09348329  0.90345714    -0.03240
C756        C  0.25433923  0.12904045  0.87874171    -0.07690
C757        C  0.21982811  0.15532851  0.87544793     0.05840
C758        C  0.18411051  0.14571008  0.89840581    -0.02720
Br759      Br  0.13546089  0.17936768  0.89519418    -0.02410
H760        H  0.15577064  0.10393959  0.94172579     0.09750
H761        H  0.28149930  0.13488801  0.85989686     0.07770
Br762      Br  0.30222696  0.06026537  0.90711019    -0.02840
C763        C  0.18998100  0.08263290  0.09441557    -0.09480
C764        C  0.22735401  0.07949951  0.07290659     0.06720
C765        C  0.25795803  0.11020925  0.07908298    -0.03240
C766        C  0.25090600  0.14294384  0.10673795    -0.07690
C767        C  0.21336876  0.14598363  0.12818876     0.05840
C768        C  0.18281319  0.11544112  0.12158461    -0.02720
Br769      Br  0.13039244  0.11714289  0.14914836    -0.02410
H770        H  0.16541988  0.06060740  0.08846371     0.09750
H771        H  0.27539280  0.16496897  0.11277961     0.07770
Br772      Br  0.30959817  0.10885179  0.04973276    -0.02840
C773        C  0.62629010  0.81808786  0.91452982    -0.09480
C774        C  0.65867988  0.84631182  0.92175661     0.06720
C775        C  0.69727869  0.83923771  0.90291497    -0.03240
C776        C  0.70290074  0.80479748  0.87737851    -0.07690
C777        C  0.67073285  0.77638333  0.87049102     0.05840
C778        C  0.63205285  0.78341183  0.88909072    -0.02720
Br779      Br  0.58597638  0.74742585  0.87918673    -0.02410
H780        H  0.59696892  0.82210237  0.93033127     0.09750
H781        H  0.73234922  0.80070937  0.86178914     0.07770
Br782      Br  0.74404946  0.87417503  0.91351440    -0.02840
C783        C  0.63557245  0.80236569  0.12394063    -0.09480
C784        C  0.66497385  0.77022391  0.12099301     0.06720
C785        C  0.69602783  0.77313450  0.09086068    -0.03240
C786        C  0.69832406  0.80834909  0.06562006    -0.07690
C787        C  0.66903976  0.84076457  0.06882247     0.05840
C788        C  0.63730509  0.83717542  0.09830740    -0.02720
Br789      Br  0.59481266  0.87818653  0.10388268    -0.02410
H790        H  0.61207347  0.80123302  0.14790356     0.09750
H791        H  0.72196708  0.80960146  0.04182370     0.07770
Br792      Br  0.73563339  0.72976123  0.08338157    -0.02840
C793        C  0.87115813  0.20159899  0.85419977    -0.09480
C794        C  0.87188795  0.23334173  0.88428426     0.06720
C795        C  0.84564486  0.26753683  0.87923428    -0.03240
C796        C  0.81972360  0.26964334  0.84473789    -0.07690
C797        C  0.81950626  0.23825052  0.81440541     0.05840
C798        C  0.84564488  0.20403368  0.81944417    -0.02720
Br799      Br  0.84652714  0.15939400  0.78034559    -0.02410
H800        H  0.89221229  0.17566493  0.85682801     0.09750
H801        H  0.79825459  0.29526214  0.84234762     0.07770
Br802      Br  0.84503351  0.31257157  0.91791115    -0.02840
C803        C  0.01949294  0.20249156  0.85185685    -0.09480
C804        C  0.01948447  0.23447322  0.88172321     0.06720
C805        C  0.04619088  0.26824624  0.87610414    -0.03240
C806        C  0.07212981  0.26951954  0.84142035    -0.07690
C807        C  0.07196032  0.23767598  0.81149691     0.05840
C808        C  0.04490025  0.20418735  0.81679752    -0.02720
Br809      Br  0.04241546  0.15962297  0.77773775    -0.02410
H810        H  0.99803060  0.17689415  0.85496821     0.09750
H811        H  0.09395597  0.29483968  0.83857074     0.07770
Br812      Br  0.04750596  0.31381358  0.91414005    -0.02840
C813        C  0.87180619  0.66379474  0.15345379    -0.09480
C814        C  0.87084880  0.69341519  0.12139445     0.06720
C815        C  0.84365636  0.72698405  0.12495366    -0.03240
C816        C  0.81659739  0.72917688  0.15874057    -0.07690
C817        C  0.81658847  0.69875620  0.19004874     0.05840
C818        C  0.84591724  0.66698917  0.18801485    -0.02720
Br819      Br  0.85279034  0.62829339  0.23197274    -0.02410
H820        H  0.89463191  0.63926158  0.15260910     0.09750
H821        H  0.79396969  0.75389417  0.15969793     0.07770
Br822      Br  0.84362225  0.77113300  0.08537021    -0.02840
C823        C  0.01503682  0.66557848  0.15587250    -0.09480
C824        C  0.01759720  0.69084160  0.12025719     0.06720
C825        C  0.04836087  0.72130932  0.11833869    -0.03240
C826        C  0.07608179  0.72547013  0.15103099    -0.07690
C827        C  0.07392003  0.69995018  0.18638838     0.05840
C828        C  0.04196568  0.67081319  0.18920318    -0.02720
Br829      Br  0.03259729  0.63881269  0.23798917    -0.02410
H830        H  0.99017595  0.64324233  0.15874189     0.09750
H831        H  0.10040903  0.74833115  0.14838583     0.07770
Br832      Br  0.05251577  0.75935578  0.07299775    -0.02840
C833        C  0.63421746  0.11077413  0.92250385    -0.09480
C834        C  0.66515966  0.08034523  0.92638016     0.06720
C835        C  0.70185965  0.08477736  0.90342342    -0.03240
C836        C  0.70639204  0.11835529  0.87642732    -0.07690
C837        C  0.67548749  0.14886987  0.87291850     0.05840
C838        C  0.63966404  0.14524372  0.89709086    -0.02720
Br839      Br  0.59737307  0.18637470  0.89664990    -0.02410
H840        H  0.60649526  0.10882170  0.94134294     0.09750
H841        H  0.73391363  0.12029489  0.85731820     0.07770
Br842      Br  0.74730900  0.04729064  0.90953501    -0.02840
C843        C  0.63850449  0.14617874  0.10473161    -0.09480
C844        C  0.67609030  0.14755997  0.12604739     0.06720
C845        C  0.70377575  0.11383293  0.12114695    -0.03240
C846        C  0.69418098  0.08036513  0.09566410    -0.07690
C847        C  0.65705413  0.07906181  0.07412299     0.05840
C848        C  0.62891726  0.11242525  0.07894334    -0.02720
Br849      Br  0.57719913  0.11323914  0.05016658    -0.02410
H850        H  0.61572495  0.17025937  0.10969261     0.09750
H851        H  0.71686896  0.05610189  0.09104111     0.07770
Br852      Br  0.75511960  0.11042494  0.14976740    -0.02840
C853        C  0.25787163  0.83783951  0.89949790    -0.09480
C854        C  0.22211240  0.84592803  0.92257852     0.06720
C855        C  0.18808659  0.81860568  0.91913080    -0.03240
C856        C  0.19029421  0.78402903  0.89317756    -0.07690
C857        C  0.22601572  0.77593903  0.87009460     0.05840
C858        C  0.25978312  0.80354622  0.87303061    -0.02720
Br859      Br  0.30858806  0.79640516  0.83988613    -0.02410
H860        H  0.28477751  0.85749569  0.90302190     0.09750
H861        H  0.16322873  0.76462099  0.88935979     0.07770
Br862      Br  0.13807775  0.82688809  0.95021511    -0.02840
C863        C  0.19579498  0.80814729  0.06751542    -0.09480
C864        C  0.22081952  0.84406135  0.07033234     0.06720
C865        C  0.24894243  0.84696800  0.10315961    -0.03240
C866        C  0.25110903  0.81502170  0.13226494    -0.07690
C867        C  0.22635491  0.77909149  0.12919217     0.05840
C868        C  0.19925343  0.77546963  0.09572416    -0.02720
Br869      Br  0.16651409  0.72682291  0.08711797    -0.02410
H870        H  0.17451766  0.80472273  0.04196203     0.09750
H871        H  0.27198351  0.81858226  0.15814858     0.07770
Br872      Br  0.28654830  0.89255445  0.10876617    -0.02840
loop_ 
_geom_bond_atom_site_label_1 
_geom_bond_atom_site_label_2 
_geom_bond_distance 
_geom_bond_site_symmetry_2 
_ccdc_geom_bond_type 
C1            C2   1.378       .  A
C1            C6   1.411       .  A
C1          C854   1.476       .  S
C2            C3   1.381   1_556  A
C2            H7   1.087       .  S
C3            C4   1.419       .  A
C3          C864   1.493       .  S
C4            C5   1.437   1_554  A
C4            H8   1.078       .  S
C5            C6   1.431       .  A
C5           C48   1.540       .  S
C6            H9   1.078       .  S
C10          C11   1.378   1_556  A
C10          C15   1.411       .  A
C10         C834   1.481       .  S
C11          C12   1.378       .  A
C11          H16   1.087       .  S
C12          C13   1.418       .  A
C12         C847   1.481       .  S
C13          C14   1.433   1_544  A
C13          H17   1.079   1_545  S
C14          C15   1.433   1_565  A
C14          C39   1.538       .  S
C15          H18   1.077   1_545  S
C19          C20   1.376       .  A
C19          C24   1.413       .  A
C19         C814   1.479       .  S
C20          C21   1.377       .  A
C20          H25   1.087       .  S
C21          C22   1.413       .  A
C21         C824   1.481   1_655  S
C22          C23   1.433       .  A
C22          H26   1.078   1_655  S
C23          C24   1.433       .  A
C23          C57   1.537   1_554  S
C24          H27   1.078       .  S
C28          C29   1.378       .  A
C28          C33   1.414       .  A
C28         C804   1.482   1_655  S
C29          C30   1.378       .  A
C29          H34   1.087       .  S
C30          C31   1.415       .  A
C30         C794   1.483       .  S
C31          C32   1.435       .  A
C31          H35   1.078       .  S
C32          C33   1.433       .  A
C32          C66   1.539   1_556  S
C33          H36   1.078   1_655  S
C37          C38   1.420       .  A
C37          C42   1.380   1_554  A
C37         C787   1.487       .  S
C38          C39   1.435   1_554  A
C38          H43   1.079       .  S
C39          C40   1.431       .  A
C40          C41   1.409       .  A
C40          H44   1.077       .  S
C41          C42   1.376       .  A
C41         C774   1.474       .  S
C42          H45   1.087       .  S
C46          C47   1.412       .  A
C46          C51   1.378   1_554  A
C46         C764   1.475       .  S
C47          C48   1.431   1_544  A
C47          H52   1.078   1_545  S
C48          C49   1.436   1_565  A
C49          C50   1.417       .  A
C49          H53   1.078   1_545  S
C50          C51   1.378       .  A
C50         C754   1.480       .  S
C51          H54   1.087       .  S
C55          C56   1.412       .  A
C55          C60   1.378       .  A
C55         C734   1.477       .  S
C56          C57   1.433       .  A
C56          H61   1.078       .  S
C57          C58   1.432       .  A
C58          C59   1.413       .  A
C58          H62   1.078   1_655  S
C59          C60   1.381       .  A
C59         C744   1.482   1_655  S
C60          H63   1.087       .  S
C64          C65   1.416       .  A
C64          C69   1.378       .  A
C64         C717   1.483       .  S
C65          C66   1.432       .  A
C65          H70   1.078       .  S
C66          C67   1.433       .  A
C67          C68   1.413       .  A
C67          H71   1.078   1_655  S
C68          C69   1.377       .  A
C68         C724   1.475   1_655  S
C69          H72   1.087       .  S
C73          C74   1.375       .  A
C73          C78   1.416       .  A
C73         C704   1.486   1_565  S
C74          C75   1.379       .  A
C74          H79   1.087       .  S
C75          C76   1.418       .  A
C75         C694   1.485       .  S
C76          C77   1.436       .  A
C76          H80   1.078       .  S
C77          C78   1.434       .  A
C77         C102   1.544       .  S
C78          H81   1.077   1_565  S
C82          C83   1.412   1_455  A
C82          C87   1.378       .  A
C82         C677   1.474       .  S
C83          C84   1.433       .  A
C83          H88   1.078       .  S
C84          C85   1.433       .  A
C84          C93   1.538       .  S
C85          C86   1.411   1_655  A
C85          H89   1.080   1_565  S
C86          C87   1.377       .  A
C86         C684   1.473   1_565  S
C87          H90   1.088       .  S
C91          C92   1.409   1_545  A
C91          C96   1.380   1_545  A
C91         C664   1.474       .  S
C92          C93   1.431       .  A
C92          H97   1.080   1_565  S
C93          C94   1.434       .  A
C94          C95   1.415       .  A
C94          H98   1.078       .  S
C95          C96   1.381       .  A
C95         C654   1.483       .  S
C96          H99   1.087       .  S
C100        C101   1.416   1_455  A
C100        C105   1.375       .  A
C100        C634   1.478       .  S
C101        C102   1.435       .  A
C101        H106   1.078       .  S
C102        C103   1.436       .  A
C103        C104   1.416   1_655  A
C103        H107   1.076   1_565  S
C104        C105   1.378       .  A
C104        C644   1.488   1_565  S
C105        H108   1.088       .  S
C109        C110   1.381       .  A
C109        C114   1.416       .  A
C109        C617   1.483       .  S
C110        C111   1.378       .  A
C110        H115   1.086       .  S
C111        C112   1.416       .  A
C111        C624   1.486       .  S
C112        C113   1.432       .  A
C112        H116   1.078       .  S
C113        C114   1.432       .  A
C113        C191   1.538       .  S
C114        H117   1.079       .  S
O118       Cr136   1.907       .  S
O118        C126   1.240       .  A
O119       Cr136   2.091       .  S
O119        C120   1.287       .  A
C120        C707   1.486       .  S
C120        O121   1.238       .  A
O121       Cr137   1.898       .  S
O122       Cr137   2.090       .  S
O122        C123   1.285       .  A
C123        C714   1.477       .  S
C123        O124   1.241       .  A
O124       Cr138   1.894       .  S
O125       Cr138   2.089       .  S
O125        C126   1.284       .  A
C126        C844   1.480       .  S
O127       Cr136   2.096       .  S
O127        C135   1.289       .  A
O128       Cr136   1.901       .  S
O128        C129   1.239       .  A
C129        C604   1.484       .  S
C129        O130   1.285       .  A
O130       Cr137   2.086       .  S
O131       Cr137   1.896       .  S
O131        C132   1.237       .  A
C132        C594   1.482       .  S
C132        O133   1.285       .  A
O133       Cr138   2.090       .  S
O134       Cr138   1.893       .  S
O134        C135   1.239       .  A
C135        C627   1.487       .  S
Cr136       O139   1.740       .  S
Cr137       O139   1.741       .  S
Cr138       O139   1.745       .  S
C140        C141   1.377       .  A
C140        C145   1.409       .  A
C140        C574   1.474       .  S
C141        C142   1.382       .  A
C141        H146   1.087       .  S
C142        C143   1.416       .  A
C142        C584   1.488       .  S
C143        C144   1.431       .  A
C143        H147   1.079       .  S
C144        C145   1.430       .  A
C144        C240   1.533       .  S
C145        H148   1.078       .  S
C149        C150   1.380       .  A
C149        C154   1.412       .  A
C149        C564   1.482       .  S
C150        C151   1.380       .  A
C150        H155   1.087       .  S
C151        C152   1.417       .  A
C151        C607   1.484       .  S
C152        C153   1.430       .  A
C152        H156   1.079       .  S
C153        C154   1.433       .  A
C153        C311   1.536       .  S
C154        H157   1.078       .  S
O158       Cr176   2.066       .  S
O158        C166   1.280       .  A
O159       Cr176   1.920       .  S
O159        C160   1.244       .  A
C160        C567   1.472       .  S
C160        O161   1.279       .  A
O161       Cr177   2.064       .  S
O162       Cr177   1.916       .  S
O162        C163   1.243       .  A
C163        C554   1.463       .  S
C163        O164   1.278       .  A
O164       Cr178   2.061       .  S
O165       Cr178   1.911       .  S
O165        C166   1.245       .  A
C166        C587   1.482       .  S
O167       Cr176   1.920       .  S
O167        C175   1.244       .  A
O168       Cr176   2.064       .  S
O168        C169   1.280       .  A
C169        C667   1.465       .  S
C169        O170   1.244       .  A
O170       Cr177   1.911       .  S
O171       Cr177   2.070       .  S
O171        C172   1.281       .  A
C172        C797   1.469       .  S
C172        O173   1.244       .  A
O173       Cr178   1.911       .  S
O174       Cr178   2.058       .  S
O174        C175   1.278       .  A
C175        C837   1.469       .  S
Cr176       O179   1.750       .  S
Cr177       O179   1.753       .  S
Cr178       O179   1.753       .  S
C180        C181   1.376       .  A
C180        C185   1.412       .  A
C180        C597   1.480       .  S
C181        C182   1.381       .  A
C181        H186   1.086       .  S
C182        C183   1.416       .  A
C182        C544   1.488       .  S
C183        C184   1.433       .  A
C183        H187   1.077       .  S
C184        C185   1.431       .  A
C184        C233   1.538       .  S
C185        H188   1.077       .  S
C189        C190   1.414       .  A
C189        C194   1.380       .  A
C189        C534   1.482       .  S
C190        C191   1.430       .  A
C190        H195   1.078       .  S
C191        C192   1.431       .  A
C192        C193   1.418       .  A
C192        H196   1.079       .  S
C193        C194   1.384       .  A
C193        C527   1.490       .  S
C194        H197   1.086       .  S
O198       Cr216   2.072       .  S
O198        C206   1.282       .  A
O199       Cr216   1.909       .  S
O199        C200   1.244       .  A
C200        C537   1.477       .  S
C200        O201   1.285       .  A
O201       Cr217   2.082       .  S
O202       Cr217   1.913       .  S
O202        C203   1.242       .  A
C203        C514   1.485       .  S
C203        O204   1.281       .  A
O204       Cr218   2.068       .  S
O205       Cr218   1.915       .  S
O205        C206   1.244       .  A
C206        C547   1.480       .  S
O207       Cr216   1.909       .  S
O207        C215   1.245       .  A
O208       Cr216   2.077       .  S
O208        C209   1.280       .  A
C209        C784   1.473       .  S
C209        O210   1.240       .  A
O210       Cr217   1.907       .  S
O211       Cr217   2.071       .  S
O211        C212   1.281       .  A
C212        C697   1.469       .  S
C212        O213   1.240       .  A
O213       Cr218   1.903       .  S
O214       Cr218   2.067       .  S
O214        C215   1.281       .  A
C215        C817   1.472       .  S
Cr216       O219   1.752       .  S
Cr217       O219   1.743       .  S
Cr218       O219   1.746       .  S
C220        C221   1.380       .  A
C220        C225   1.413       .  A
C220        C504   1.476       .  S
C221        C222   1.382       .  A
C221        H226   1.085       .  S
C222        C223   1.416       .  A
C222        C517   1.488       .  S
C223        C224   1.430       .  A
C223        H227   1.077       .  S
C224        C225   1.432       .  A
C224        C271   1.539       .  S
C225        H228   1.078       .  S
C229        C230   1.378       .  A
C229        C234   1.414       .  A
C229        C494   1.477       .  S
C230        C231   1.375       .  A
C230        H235   1.088       .  S
C231        C232   1.410       .  A
C231        C557   1.473       .  S
C232        C233   1.434       .  A
C232        H236   1.077       .  S
C233        C234   1.433       .  A
C234        H237   1.078       .  S
C238        C239   1.413       .  A
C238        C243   1.381       .  A
C238        C474   1.479       .  S
C239        C240   1.430       .  A
C239        H244   1.079       .  S
C240        C241   1.430       .  A
C241        C242   1.411       .  A
C241        H245   1.078       .  S
C242        C243   1.378       .  A
C242        C484   1.474       .  S
C243        H246   1.087       .  S
O247       Cr265   1.918       .  S
O247        C255   1.244       .  A
O248       Cr265   2.058       .  S
O248        C249   1.279       .  A
C249        C657   1.468       .  S
C249        O250   1.245       .  A
O250       Cr266   1.917       .  S
O251       Cr266   2.065       .  S
O251        C252   1.280       .  A
C252        C737   1.465       .  S
C252        O253   1.245       .  A
O253       Cr267   1.916       .  S
O254       Cr267   2.060       .  S
O254        C255   1.277       .  A
C255        C777   1.465       .  S
O256       Cr265   2.062       .  S
O256        C264   1.279       .  A
O257       Cr265   1.920       .  S
O257        C258   1.244       .  A
C258        C507   1.467       .  S
C258        O259   1.278       .  A
O259       Cr266   2.062       .  S
O260       Cr266   1.916       .  S
O260        C261   1.244       .  A
C261        C497   1.462       .  S
C261        O262   1.277       .  A
O262       Cr267   2.059       .  S
O263       Cr267   1.911       .  S
O263        C264   1.244       .  A
C264        C477   1.468       .  S
Cr265       O268   1.750       .  S
Cr266       O268   1.753       .  S
Cr267       O268   1.754       .  S
C269        C270   1.413       .  A
C269        C274   1.378       .  A
C269        C464   1.474       .  S
C270        C271   1.431       .  A
C270        H275   1.078       .  S
C271        C272   1.435       .  A
C272        C273   1.413       .  A
C272        H276   1.077       .  S
C273        C274   1.377       .  A
C273        C454   1.478       .  S
C274        H277   1.088       .  S
C278        C279   1.382       .  A
C278        C283   1.413       .  A
C278        C437   1.475       .  S
C279        C280   1.383       .  A
C279        H284   1.086       .  S
C280        C281   1.414       .  A
C280        C444   1.482       .  S
C281        C282   1.426       .  A
C281        H285   1.081       .  S
C282        C283   1.427       .  A
C282        C342   1.525       .  S
C283        H286   1.080       .  S
O287       Cr305   2.061       .  S
O287        C295   1.278       .  A
O288       Cr305   1.914       .  S
O288        C289   1.244       .  A
C289        C434   1.465       .  S
C289        O290   1.277       .  A
O290       Cr306   2.055       .  S
O291       Cr306   1.919       .  S
O291        C292   1.242       .  A
C292        C487   1.464       .  S
C292        O293   1.275       .  A
O293       Cr307   2.060       .  S
O294       Cr307   1.915       .  S
O294        C295   1.245       .  A
C295        C467   1.461       .  S
O296       Cr305   1.915       .  S
O296        C304   1.243       .  A
O297       Cr305   2.055       .  S
O297        C298   1.278       .  A
C298        C747   1.471       .  S
C298        O299   1.246       .  A
O299       Cr306   1.919       .  S
O300       Cr306   2.066       .  S
O300        C301   1.281       .  A
C301        C857   1.463       .  S
C301        O302   1.245       .  A
O302       Cr307   1.911       .  S
O303       Cr307   2.059       .  S
O303        C304   1.277       .  A
C304        C674   1.463       .  S
Cr305       O308   1.752       .  S
Cr306       O308   1.752       .  S
Cr307       O308   1.756       .  S
C309        C310   1.420       .  A
C309        C314   1.383       .  A
C309        C424   1.493       .  S
C310        C311   1.436       .  A
C310        H315   1.078       .  S
C311        C312   1.428       .  A
C312        C313   1.408       .  A
C312        H316   1.078       .  S
C313        C314   1.376       .  A
C313        C417   1.474       .  S
C314        H317   1.087       .  S
O318       Cr336   1.916       .  S
O318        C326   1.243       .  A
O319       Cr336   2.065       .  S
O319        C320   1.279       .  A
C320        C447   1.483       .  S
C320        O321   1.244       .  A
O321       Cr337   1.919       .  S
O322       Cr337   2.075       .  S
O322        C323   1.284       .  A
C323        C414   1.471       .  S
C323        O324   1.243       .  A
O324       Cr338   1.899       .  S
O325       Cr338   2.062       .  S
O325        C326   1.278       .  A
C326        C577   1.467       .  S
O327       Cr336   2.075       .  S
O327        C335   1.283       .  A
O328       Cr336   1.905       .  S
O328        C329   1.244       .  A
C329        C807   1.470       .  S
C329        O330   1.280       .  A
O330       Cr337   2.065       .  S
O331       Cr337   1.920       .  S
O331        C332   1.242       .  A
C332        C687   1.463       .  S
C332        O333   1.275       .  A
O333       Cr338   2.058       .  S
O334       Cr338   1.910       .  S
O334        C335   1.244       .  A
C335        C757   1.468       .  S
Cr336       O339   1.749       .  S
Cr337       O339   1.748       .  S
Cr338       O339   1.755       .  S
C340        C341   1.414       .  A
C340        C345   1.382       .  A
C340        C404   1.485       .  S
C341        C342   1.428       .  A
C341        H346   1.081       .  S
C342        C343   1.426       .  A
C343        C344   1.414       .  A
C343        H347   1.080       .  S
C344        C345   1.382       .  A
C344        C397   1.484       .  S
C345        H348   1.085       .  S
O349       Cr367   1.910       .  S
O349        C357   1.244       .  A
O350       Cr367   2.072       .  S
O350        C351   1.282       .  A
C351        C867   1.480       .  S
C351        O352   1.245       .  A
O352       Cr368   1.912       .  S
O353       Cr368   2.076       .  S
O353        C354   1.282       .  A
C354        C637   1.467       .  S
C354        O355   1.241       .  A
O355       Cr369   1.904       .  S
O356       Cr369   2.067       .  S
O356        C357   1.279       .  A
C357        C827   1.477       .  S
O358       Cr367   2.075       .  S
O358        C366   1.281       .  A
O359       Cr367   1.914       .  S
O359        C360   1.245       .  A
C360        C524   1.479       .  S
C360        O361   1.280       .  A
O361       Cr368   2.069       .  S
O362       Cr368   1.916       .  S
O362        C363   1.243       .  A
C363        C457   1.473       .  S
C363        O364   1.280       .  A
O364       Cr369   2.071       .  S
O365       Cr369   1.907       .  S
O365        C366   1.245       .  A
C366        C394   1.479       .  S
Cr367       O370   1.746       .  S
Cr368       O370   1.750       .  S
Cr369       O370   1.750       .  S
O371       Cr389   2.067       .  S
O371        C379   1.281       .  A
O372       Cr389   1.909       .  S
O372        C373   1.243       .  A
C373        C647   1.478       .  S
C373        O374   1.281       .  A
O374       Cr390   2.070       .  S
O375       Cr390   1.919       .  S
O375        C376   1.244       .  A
C376        C767   1.469       .  S
C376        O377   1.278       .  A
O377       Cr391   2.065       .  S
O378       Cr391   1.917       .  S
O378        C379   1.245       .  A
C379        C727   1.465       .  S
O380       Cr389   1.912       .  S
O380        C388   1.243       .  A
O381       Cr389   2.067       .  S
O381        C382   1.280       .  A
C382        C427   1.481       .  S
C382        O383   1.244       .  A
O383       Cr390   1.915       .  S
O384       Cr390   2.070       .  S
O384        C385   1.282       .  A
C385        C614   1.473       .  S
C385        O386   1.245       .  A
O386       Cr391   1.913       .  S
O387       Cr391   2.064       .  S
O387        C388   1.278       .  A
C388        C407   1.470       .  S
Cr389       O392   1.748       .  S
Cr390       O392   1.749       .  S
Cr391       O392   1.751       .  S
C393        C394   1.409       .  A
C393        C398   1.393       .  A
C393        H400   1.078       .  S
C394        C395   1.402       .  A
C395        C396   1.403       .  A
C395       Br402   1.910       .  S
C396        C397   1.416       .  A
C396        H401   1.084       .  S
C397        C398   1.405       .  A
C398       Br399   1.921       .  S
C403        C404   1.416       .  A
C403        C408   1.399       .  A
C403        H410   1.084       .  S
C404        C405   1.404       .  A
C405        C406   1.397       .  A
C405       Br412   1.919       .  S
C406        C407   1.411       .  A
C406        H411   1.084       .  S
C407        C408   1.400       .  A
C408       Br409   1.916       .  S
C413        C414   1.412       .  A
C413        C418   1.392       .  A
C413        H420   1.084       .  S
C414        C415   1.403       .  A
C415        C416   1.403       .  A
C415       Br422   1.917       .  S
C416        C417   1.413       .  A
C416        H421   1.084       .  S
C417        C418   1.401       .  A
C418       Br419   1.920       .  S
C423        C424   1.417       .  A
C423        C428   1.399       .  A
C423        H430   1.084       .  S
C424        C425   1.405       .  A
C425        C426   1.401       .  A
C425       Br432   1.918       .  S
C426        C427   1.415       .  A
C426        H431   1.084       .  S
C427        C428   1.400       .  A
C428       Br429   1.913       .  S
C433        C434   1.401       .  A
C433        C438   1.402       .  A
C433        H440   1.083       .  S
C434        C435   1.412       .  A
C435        C436   1.396       .  A
C435       Br442   1.920       .  S
C436        C437   1.399       .  A
C436        H441   1.084       .  S
C437        C438   1.414       .  A
C438       Br439   1.918       .  S
C443        C444   1.391       .  A
C443        C448   1.392       .  A
C443        H450   1.084       .  S
C444        C445   1.420       .  A
C445        C446   1.404       .  A
C445       Br452   1.922       .  S
C446        C447   1.400       .  A
C446        H451   1.083       .  S
C447        C448   1.423       .  A
C448       Br449   1.914       .  S
C453        C454   1.396       .  A
C453        C458   1.397       .  A
C453        H460   1.084       .  S
C454        C455   1.417       .  A
C455        C456   1.403       .  A
C455       Br462   1.919       .  S
C456        C457   1.400       .  A
C456        H461   1.084       .  S
C457        C458   1.417       .  A
C458       Br459   1.919       .  S
C463        C464   1.409       .  A
C463        C468   1.400       .  A
C463        H470   1.084       .  S
C464        C465   1.404       .  A
C465        C466   1.398       .  A
C465       Br472   1.918       .  S
C466        C467   1.406       .  A
C466        H471   1.084       .  S
C467        C468   1.404       .  A
C468       Br469   1.918       .  S
C473        C474   1.413       .  A
C473        C478   1.400       .  A
C473        H480   1.084       .  S
C474        C475   1.402       .  A
C475        C476   1.397       .  A
C475       Br482   1.918       .  S
C476        C477   1.410       .  A
C476        H481   1.084       .  S
C477        C478   1.402       .  A
C478       Br479   1.917       .  S
C483        C484   1.400       .  A
C483        C488   1.396       .  A
C483        H490   1.084       .  S
C484        C485   1.413       .  A
C485        C486   1.402       .  A
C485       Br492   1.918       .  S
C486        C487   1.401       .  A
C486        H491   1.084       .  S
C487        C488   1.410       .  A
C488       Br489   1.917       .  S
C493        C494   1.410       .  A
C493        C498   1.399       .  A
C493        H500   1.084       .  S
C494        C495   1.404       .  A
C495        C496   1.399       .  A
C495       Br502   1.917       .  S
C496        C497   1.407       .  A
C496        H501   1.084       .  S
C497        C498   1.404       .  A
C498       Br499   1.919       .  S
C503        C504   1.402       .  A
C503        C508   1.402       .  A
C503        H510   1.084       .  S
C504        C505   1.411       .  A
C505        C506   1.400       .  A
C505       Br512   1.919       .  S
C506        C507   1.402       .  A
C506        H511   1.084       .  S
C507        C508   1.411       .  A
C508       Br509   1.916       .  S
C513        C514   1.400       .  A
C513        C518   1.403       .  A
C513        H520   1.083       .  S
C514        C515   1.426       .  A
C515        C516   1.392       .  A
C515       Br522   1.922       .  S
C516        C517   1.393       .  A
C516        H521   1.084       .  S
C517        C518   1.421       .  A
C518       Br519   1.922       .  S
C523        C524   1.413       .  A
C523        C528   1.396       .  A
C523        H530   1.084       .  S
C524        C525   1.402       .  A
C525        C526   1.403       .  A
C525       Br532   1.918       .  S
C526        C527   1.419       .  A
C526        H531   1.084       .  S
C527        C528   1.403       .  A
C528       Br529   1.919       .  S
C533        C534   1.396       .  A
C533        C538   1.394       .  A
C533        H540   1.084       .  S
C534        C535   1.417       .  A
C535        C536   1.406       .  A
C535       Br542   1.918       .  S
C536        C537   1.401       .  A
C536        H541   1.084       .  S
C537        C538   1.420       .  A
C538       Br539   1.921       .  S
C543        C544   1.415       .  A
C543        C548   1.397       .  A
C543        H550   1.084       .  S
C544        C545   1.404       .  A
C545        C546   1.399       .  A
C545       Br552   1.919       .  S
C546        C547   1.415       .  A
C546        H551   1.084       .  S
C547        C548   1.400       .  A
C548       Br549   1.910       .  S
C553        C554   1.405       .  A
C553        C558   1.398       .  A
C553        H560   1.084       .  S
C554        C555   1.406       .  A
C555        C556   1.401       .  A
C555       Br562   1.918       .  S
C556        C557   1.406       .  A
C556        H561   1.084       .  S
C557        C558   1.407       .  A
C558       Br559   1.919       .  S
C563        C564   1.410       .  A
C563        C568   1.397       .  A
C563        H570   1.084       .  S
C564        C565   1.405       .  A
C565        C566   1.402       .  A
C565       Br572   1.918       .  S
C566        C567   1.411       .  A
C566        H571   1.084       .  S
C567        C568   1.403       .  A
C568       Br569   1.913       .  S
C573        C574   1.411       .  A
C573        C578   1.400       .  A
C573        H580   1.084       .  S
C574        C575   1.402       .  A
C575        C576   1.397       .  A
C575       Br582   1.918       .  S
C576        C577   1.410       .  A
C576        H581   1.084       .  S
C577        C578   1.403       .  A
C578       Br579   1.918       .  S
C583        C584   1.416       .  A
C583        C588   1.399       .  A
C583        H590   1.084       .  S
C584        C585   1.404       .  A
C585        C586   1.396       .  A
C585       Br592   1.920       .  S
C586        C587   1.414       .  A
C586        H591   1.083       .  S
C587        C588   1.401       .  A
C588       Br589   1.911       .  S
C593        C594   1.399       .  A
C593        C598   1.404       .  A
C593        H600   1.083       .  S
C594        C595   1.428       .  A
C595        C596   1.390       .  A
C595       Br602   1.922       .  S
C596        C597   1.389       .  A
C596        H601   1.084       .  S
C597        C598   1.420       .  A
C598       Br599   1.920       .  S
C603        C604   1.399       .  A
C603        C608   1.405       .  A
C603        H610   1.084       .  S
C604        C605   1.426       .  A
C605        C606   1.392       .  A
C605       Br612   1.918       .  S
C606        C607   1.390       .  A
C606        H611   1.084       .  S
C607        C608   1.421       .  A
C608       Br609   1.920       .  S
C613        C614   1.412       .  A
C613        C618   1.399       .  A
C613        H620   1.084       .  S
C614        C615   1.402       .  A
C615        C616   1.400       .  A
C615       Br622   1.916       .  S
C616        C617   1.414       .  A
C616        H621   1.084       .  S
C617        C618   1.404       .  A
C618       Br619   1.919       .  S
C623        C624   1.389       .  A
C623        C628   1.392       .  A
C623        H630   1.084       .  S
C624        C625   1.422       .  A
C625        C626   1.406       .  A
C625       Br632   1.921       .  S
C626        C627   1.399       .  A
C626        H631   1.083       .  S
C627        C628   1.430       .  A
C628       Br629   1.921       .  S
C633        C634   1.402       .  A
C633        C638   1.400       .  A
C633        H640   1.084       .  S
C634        C635   1.414       .  A
C635        C636   1.403       .  A
C635       Br642   1.919       .  S
C636        C637   1.402       .  A
C636        H641   1.084       .  S
C637        C638   1.413       .  A
C638       Br639   1.919       .  S
C643        C644   1.416       .  A
C643        C648   1.401       .  A
C643        H650   1.084       .  S
C644        C645   1.404       .  A
C645        C646   1.397       .  A
C645       Br652   1.919       .  S
C646        C647   1.412       .  A
C646        H651   1.081       .  S
C647        C648   1.401       .  A
C648       Br649   1.912       .  S
C653        C654   1.399       .  A
C653        C658   1.400       .  A
C653        H660   1.084       .  S
C654        C655   1.418       .  A
C655        C656   1.399       .  A
C655       Br662   1.919       .  S
C656        C657   1.397       .  A
C656        H661   1.084       .  S
C657        C658   1.415       .  A
C658       Br659   1.920       .  S
C663        C664   1.399       .  A
C663        C668   1.400       .  A
C663        H670   1.084       .  S
C664        C665   1.409       .  A
C665        C666   1.400       .  A
C665       Br672   1.916       .  S
C666        C667   1.402       .  A
C666        H671   1.084       .  S
C667        C668   1.413       .  A
C668       Br669   1.916       .  S
C673        C674   1.398       .  A
C673        C678   1.399       .  A
C673        H680   1.084       .  S
C674        C675   1.413       .  A
C675        C676   1.399       .  A
C675       Br682   1.920       .  S
C676        C677   1.399       .  A
C676        H681   1.084       .  S
C677        C678   1.415       .  A
C678       Br679   1.920       .  S
C683        C684   1.402       .  A
C683        C688   1.398       .  A
C683        H690   1.084       .  S
C684        C685   1.410       .  A
C685        C686   1.401       .  A
C685       Br692   1.918       .  S
C686        C687   1.403       .  A
C686        H691   1.084       .  S
C687        C688   1.409       .  A
C688       Br689   1.916       .  S
C693        C694   1.414       .  A
C693        C698   1.400       .  A
C693        H700   1.084       .  S
C694        C695   1.404       .  A
C695        C696   1.402       .  A
C695       Br702   1.918       .  S
C696        C697   1.413       .  A
C696        H701   1.084       .  S
C697        C698   1.401       .  A
C698       Br699   1.918       .  S
C703        C704   1.388       .  A
C703        C708   1.391       .  A
C703        H710   1.084       .  S
C704        C705   1.423       .  A
C705        C706   1.405       .  A
C705       Br712   1.921   1_545  S
C706        C707   1.399       .  A
C706        H711   1.084       .  S
C707        C708   1.429       .  A
C708       Br709   1.916       .  S
C713        C714   1.410       .  A
C713        C718   1.391       .  A
C713        H720   1.079       .  S
C714        C715   1.403       .  A
C715        C716   1.407       .  A
C715       Br722   1.916       .  S
C716        C717   1.417       .  A
C716        H721   1.084       .  S
C717        C718   1.402       .  A
C718       Br719   1.921       .  S
C723        C724   1.406       .  A
C723        C728   1.400       .  A
C723        H730   1.084       .  S
C724        C725   1.409       .  A
C725        C726   1.401       .  A
C725       Br732   1.918       .  S
C726        C727   1.404       .  A
C726        H731   1.081       .  S
C727        C728   1.407       .  A
C728       Br729   1.918       .  S
C733        C734   1.400       .  A
C733        C738   1.401       .  A
C733        H740   1.084       .  S
C734        C735   1.415       .  A
C735        C736   1.399       .  A
C735       Br742   1.920       .  S
C736        C737   1.399       .  A
C736        H741   1.084       .  S
C737        C738   1.413       .  A
C738       Br739   1.919       .  S
C743        C744   1.412       .  A
C743        C748   1.398       .  A
C743        H750   1.084   1_455  S
C744        C745   1.404       .  A
C745        C746   1.399       .  A
C745       Br752   1.918       .  S
C746        C747   1.410       .  A
C746        H751   1.084       .  S
C747        C748   1.403       .  A
C748       Br749   1.918       .  S
C753        C754   1.410       .  A
C753        C758   1.403       .  A
C753        H760   1.084       .  S
C754        C755   1.406       .  A
C755        C756   1.401       .  A
C755       Br762   1.918       .  S
C756        C757   1.408       .  A
C756        H761   1.084       .  S
C757        C758   1.406       .  A
C758       Br759   1.918       .  S
C763        C764   1.397       .  A
C763        C768   1.395       .  A
C763        H770   1.084       .  S
C764        C765   1.416       .  A
C765        C766   1.402       .  A
C765       Br772   1.919       .  S
C766        C767   1.400       .  A
C766        H771   1.083       .  S
C767        C768   1.413       .  A
C768       Br769   1.914       .  S
C773        C774   1.409       .  A
C773        C778   1.401       .  A
C773        H780   1.084       .  S
C774        C775   1.406       .  A
C775        C776   1.396       .  A
C775       Br782   1.919       .  S
C776        C777   1.406       .  A
C776        H781   1.085       .  S
C777        C778   1.405       .  A
C778       Br779   1.918       .  S
C783        C784   1.412       .  A
C783        C788   1.399       .  A
C783        H790   1.084       .  S
C784        C785   1.400       .  A
C785        C786   1.403       .  A
C785       Br792   1.914       .  S
C786        C787   1.416       .  A
C786        H791   1.084       .  S
C787        C788   1.404       .  A
C788       Br789   1.918       .  S
C793        C794   1.413       .  A
C793        C798   1.400       .  A
C793        H800   1.084       .  S
C794        C795   1.404       .  A
C795        C796   1.401       .  A
C795       Br802   1.918       .  S
C796        C797   1.410       .  A
C796        H801   1.084       .  S
C797        C798   1.403       .  A
C798       Br799   1.917       .  S
C803        C804   1.414       .  A
C803        C808   1.399       .  A
C803        H810   1.084   1_455  S
C804        C805   1.403       .  A
C805        C806   1.399       .  A
C805       Br812   1.918       .  S
C806        C807   1.412       .  A
C806        H811   1.084       .  S
C807        C808   1.402       .  A
C808       Br809   1.916       .  S
C813        C814   1.413       .  A
C813        C818   1.398       .  A
C813        H820   1.084       .  S
C814        C815   1.402       .  A
C815        C816   1.399       .  A
C815       Br822   1.918       .  S
C816        C817   1.412       .  A
C816        H821   1.084       .  S
C817        C818   1.400       .  A
C818       Br819   1.909       .  S
C823        C824   1.415       .  A
C823        C828   1.399       .  A
C823        H830   1.084   1_455  S
C824        C825   1.401       .  A
C825        C826   1.396       .  A
C825       Br832   1.919       .  S
C826        C827   1.412       .  A
C826        H831   1.082       .  S
C827        C828   1.401       .  A
C828       Br829   1.911       .  S
C833        C834   1.410       .  A
C833        C838   1.396       .  A
C833        H840   1.084       .  S
C834        C835   1.406       .  A
C835        C836   1.401       .  A
C835       Br842   1.917       .  S
C836        C837   1.410       .  A
C836        H841   1.084       .  S
C837        C838   1.401       .  A
C838       Br839   1.909       .  S
C843        C844   1.401       .  A
C843        C848   1.407       .  A
C843        H850   1.084       .  S
C844        C845   1.420       .  A
C845        C846   1.394       .  A
C845       Br852   1.909       .  S
C846        C847   1.392       .  A
C846        H851   1.084       .  S
C847        C848   1.420       .  A
C848       Br849   1.919       .  S
C853        C854   1.399       .  A
C853        C858   1.401       .  A
C853        H860   1.084       .  S
C854        C855   1.415       .  A
C855        C856   1.398       .  A
C855       Br862   1.921       .  S
C856        C857   1.398       .  A
C856        H861   1.084       .  S
C857        C858   1.413       .  A
C858       Br859   1.919       .  S
C863        C864   1.417       .  A
C863        C868   1.401       .  A
C863        H870   1.084       .  S
C864        C865   1.405       .  A
C865        C866   1.400       .  A
C865       Br872   1.919       .  S
C866        C867   1.413       .  A
C866        H871   1.084       .  S
C867        C868   1.401       .  A
C868       Br869   1.915       .  S
