geometry optimzed in LAMMPS
_audit_creation_date              2020-11-30 
_audit_creation_method            'lammps2cif' 
_symmetry_space_group_name_H-M    'P1' 
_symmetry_Int_Tables_number       1 
_symmetry_cell_setting            triclinic 
loop_ 
_symmetry_equiv_pos_as_xyz 
  x,y,z 
_cell_length_a                    45.20333116 
_cell_length_b                    45.21560913043388 
_cell_length_c                    33.5565525780535 
_cell_angle_alpha                 89.96063561364885 
_cell_angle_beta                  89.92318449870618 
_cell_angle_gamma                 89.96388878471666 
loop_ 
_atom_site_label 
_atom_site_type_symbol 
_atom_site_fract_x 
_atom_site_fract_y 
_atom_site_fract_z 
_atom_site_charge 
C1          C  0.36276330  0.37712288  0.99644863     0.80800
N2          N  0.35023335  0.36742030  0.29535647    -0.77500
C3          C  0.32628898  0.34931971  0.29619749     0.83200
N4          N  0.31482859  0.34053983  0.33168385    -0.77500
C5          C  0.32744539  0.34955699  0.03295135     0.83300
N6          N  0.35147415  0.36767534  0.03194814    -0.79200
C7          C  0.15262724  0.36849433  0.99804796     0.80800
N8          N  0.16206606  0.35619795  0.03287745    -0.77500
C9          C  0.17996351  0.33201581  0.03272413     0.83200
N10         N  0.18872630  0.32004743  0.33083263    -0.77500
C11         C  0.17999526  0.33243653  0.29590979     0.83300
N12         N  0.16212482  0.35665443  0.29626692    -0.79200
C13         C  0.37189092  0.16816770  0.99789189     0.80800
N14         N  0.36211951  0.17998947  0.29640909    -0.77500
C15         C  0.34366976  0.20369803  0.29641493     0.83200
N16         N  0.33463121  0.21562257  0.99806289    -0.77500
C17         C  0.34388639  0.20374412  0.03303006     0.83300
N18         N  0.36234420  0.18003057  0.03289161    -0.79200
N19         N  0.01168035  0.47228205  0.33182057    -0.36100
N20         N  0.05750856  0.01799829  0.32877121    -0.56600
N21         N  0.01151313  0.06387690  0.33095499    -0.36100
N22         N  0.46569924  0.01823176  0.32671535    -0.56600
C23         C  0.03596306  0.45523333  0.32577055     0.27500
C24         C  0.48753655  0.45528730  0.32479657     0.27500
C25         C  0.03572408  0.08085542  0.32461224     0.27500
C26         C  0.48742077  0.08091712  0.32401164     0.27500
C27         C  0.07517930  0.49403878  0.33319868     0.36100
C28         C  0.07498409  0.04210111  0.33290586     0.36100
C29         C  0.44818524  0.49414599  0.33186277     0.36100
C30         C  0.44813745  0.04226807  0.33141779     0.36100
C31         C  0.02706550  0.42688683  0.31551113    -0.21300
C32         C  0.49662140  0.42693613  0.31475059    -0.21300
C33         C  0.02685732  0.10919873  0.31419048    -0.21300
C34         C  0.49646600  0.10923928  0.31375785    -0.21300
C35         C  0.10411568  0.00299666  0.33959080    -0.22400
C36         C  0.10399399  0.03336134  0.33935291    -0.22400
C37         C  0.41932482  0.00311518  0.33893216    -0.22400
C38         C  0.41928349  0.03346526  0.33873744    -0.22400
C39         C  0.06596466  0.46412368  0.33011995    -0.17800
C40         C  0.45748361  0.46424415  0.32837523    -0.17800
C41         C  0.45745501  0.07211340  0.32817341    -0.17700
C42         C  0.06561223  0.07193174  0.32918418    -0.17700
H43         H  0.04105784  0.40808184  0.30889774     0.15200
H44         H  0.48276238  0.40817295  0.30759467     0.15200
H45         H  0.04084616  0.12797970  0.30750970     0.15200
H46         H  0.48258908  0.12803754  0.30669209     0.15200
H47         H  0.12337948  0.48916063  0.34376075     0.13400
H48         H  0.12316014  0.04739234  0.34327117     0.13400
H49         H  0.40019858  0.48912340  0.34434170     0.13400
H50         H  0.40016464  0.04743451  0.34358006     0.13400
H51         H  0.01153415  0.49391182  0.34178407     0.26700
H52         H  0.01144538  0.04232255  0.34126190     0.26700
C53         C  0.16118905  0.15818176  0.99736382     0.80800
N54         N  0.17367365  0.16790523  0.29614781    -0.77000
C55         C  0.19784559  0.18573122  0.29666195     0.83200
N56         N  0.20966384  0.19420891  0.99855910    -0.77500
C57         C  0.19723992  0.18516556  0.03334101     0.83300
N58         N  0.17300432  0.16734224  0.03263684    -0.79200
C59         C  0.33200346  0.21516911  0.25881877     0.43000
N60         N  0.30387160  0.22046135  0.20809418     0.01900
C61         C  0.28732177  0.34475094  0.08941776    -0.06000
H62         H  0.26965893  0.36037331  0.24812319     0.07400
C63         C  0.18510440  0.29237754  0.23955125    -0.06300
Co64       Co  0.31554777  0.27718641  0.16463534     0.74200
N65         N  0.28503677  0.32597787  0.20831278    -0.25500
Co66       Co  0.25258673  0.32113310  0.16422509     0.74100
C67         C  0.19147496  0.32084598  0.25808995     0.43100
N68         N  0.21486762  0.22578953  0.20838159     0.01500
N69         N  0.22000565  0.31505636  0.20764068     0.01600
N70         N  0.32843812  0.31626989  0.09205131    -0.46400
H71         H  0.35472367  0.25996620  0.24804818     0.07400
N72         N  0.30916753  0.30948128  0.20804776     0.01900
N73         N  0.22026593  0.31472016  0.12065282     0.01600
C74         C  0.19173979  0.32029271  0.07027189     0.43200
N75         N  0.23900544  0.20930228  0.20865173    -0.25000
C76         C  0.33892183  0.24329970  0.08966363    -0.05900
N77         N  0.31018224  0.20221955  0.23781213    -0.46100
N78         N  0.21380571  0.33304218  0.09107135    -0.46300
C79         C  0.33226681  0.21512662  0.07067766     0.43000
N80         N  0.30971087  0.30965197  0.12116248     0.01900
N81         N  0.23876673  0.20896747  0.12095236    -0.25000
N82         N  0.32027742  0.24462143  0.20842787    -0.25500
N83         N  0.21460729  0.22541641  0.12132890     0.01500
H84         H  0.25366404  0.17393329  0.08184832     0.07400
H85         H  0.16890167  0.27553127  0.08129797     0.07500
N86         N  0.28554271  0.32607968  0.12053429    -0.25500
N87         N  0.20362524  0.29087335  0.20823688    -0.25100
N88         N  0.30387257  0.22050354  0.12116298     0.01900
C89         C  0.31438210  0.33740686  0.25897525     0.43300
C90         C  0.23779763  0.19096403  0.24015096    -0.06400
N91         N  0.20372382  0.29062159  0.12052178    -0.25100
H92         H  0.16897958  0.27583882  0.24792295     0.07400
N93         N  0.32734850  0.31565462  0.23781831    -0.46400
H94         H  0.25438262  0.17482906  0.24833776     0.07400
C95         C  0.20866238  0.19647923  0.07136437     0.43100
C96         C  0.33863040  0.24337914  0.23983312    -0.05900
Co97       Co  0.27151397  0.21413042  0.16466378     0.73800
N98         N  0.19665584  0.21951330  0.23818415    -0.46100
C99         C  0.31597100  0.33846164  0.07110388     0.43400
N100        N  0.31024170  0.20226800  0.09149287    -0.46100
Co101      Co  0.20853568  0.25806312  0.16462231     0.73900
C102        C  0.18516525  0.29201336  0.08929527    -0.06400
C103        C  0.28623616  0.34424615  0.23986090    -0.06000
N104        N  0.32040628  0.24459667  0.12093602    -0.25500
N105        N  0.21347273  0.33355083  0.23700310    -0.46300
H106        H  0.27087972  0.36098670  0.08107828     0.07400
C107        C  0.23717247  0.19019284  0.08995925    -0.06400
Cl108      Cl  0.26202910  0.26763227  0.16446388    -0.49400
C109        C  0.20962402  0.19769924  0.25929087     0.43200
H110        H  0.35511615  0.25983525  0.08153100     0.07400
N111        N  0.19606716  0.21872005  0.09211199    -0.46100
C112        C  0.10315915  0.10315952  0.29360979     0.24100
C113        C  0.08880500  0.09529161  0.99586726    -0.24000
C114        C  0.09696695  0.10925842  0.03146259     0.19000
C115        C  0.11995532  0.13004243  0.03192485     0.24100
C116        C  0.13535126  0.13738508  0.99654746    -0.23900
C117        C  0.12615382  0.12394525  0.29382326     0.19000
F118        F  0.13957656  0.13037565  0.25866445    -0.13900
F119        F  0.09503008  0.09035450  0.25871075    -0.16200
F120        F  0.12703809  0.14283253  0.06721858    -0.16200
F121        F  0.08286263  0.10239275  0.06599268    -0.13900
C122        C  0.43208022  0.11409686  0.02981294     0.24100
C123        C  0.43452349  0.09584126  0.99616061    -0.24000
C124        C  0.41579753  0.10086102  0.29684064     0.19000
C125        C  0.39519516  0.12402419  0.29761819     0.24100
C126        C  0.39296825  0.14277579  0.99770038    -0.23900
C127        C  0.41153975  0.13728421  0.03069441     0.19000
F128        F  0.41056755  0.15483960  0.06347957    -0.13900
F129        F  0.44995456  0.10960690  0.06173860    -0.16200
F130        F  0.37723241  0.12782666  0.26562652    -0.16200
F131        F  0.41775754  0.08351049  0.26394401    -0.13900
C132        C  0.11313130  0.39935293  0.36503386     0.24100
C133        C  0.13156209  0.39408096  0.99831732    -0.24000
C134        C  0.12841014  0.41256544  0.96459196     0.19000
C135        C  0.10750847  0.43554637  0.96426874     0.24100
C136        C  0.08913943  0.44047836  0.33088470    -0.23900
C137        C  0.09211979  0.42217484  0.36443880     0.19000
F138        F  0.07437918  0.42629816  0.39664044    -0.13900
F139        F  0.11475423  0.38197894  0.39796460    -0.16200
F140        F  0.10561210  0.45348162  0.26537201    -0.16200
F141        F  0.14566293  0.40863412  0.93187432    -0.13900
C142        C  0.40852503  0.39987385  0.02677308     0.24100
C143        C  0.38802146  0.39835757  0.99518418    -0.24000
C144        C  0.39128689  0.41812470  0.29622859     0.19000
C145        C  0.41413517  0.43904855  0.29587461     0.24100
C146        C  0.43413686  0.44084458  0.32777936    -0.23900
C147        C  0.43120173  0.42102784  0.02650977     0.19000
F148        F  0.45004515  0.42254247  0.05791091    -0.13900
F149        F  0.40687068  0.38069493  0.05783158    -0.16200
F150        F  0.41642710  0.45805063  0.26466457    -0.16200
F151        F  0.37175755  0.41804598  0.26552300    -0.13900
C152        C  0.36279652  0.37707462  0.32979547     0.80800
N153        N  0.35013524  0.36747330  0.62861785    -0.77500
C154        C  0.32622964  0.34932242  0.62951500     0.83200
N155        N  0.31483693  0.34051196  0.66502757    -0.77500
C156        C  0.32743559  0.34956464  0.36629917     0.83300
N157        N  0.35149746  0.36764507  0.36530027    -0.79200
C158        C  0.15257296  0.36843695  0.33138043     0.80800
N159        N  0.16198986  0.35610829  0.36619911    -0.77500
C160        C  0.17989408  0.33193252  0.36602559     0.83200
N161        N  0.18878301  0.32014530  0.66417321    -0.77500
C162        C  0.18000643  0.33249385  0.62924441     0.83300
N163        N  0.16209381  0.35668207  0.62959271    -0.79200
C164        C  0.37193585  0.16819247  0.33130279     0.80800
N165        N  0.36212341  0.17995835  0.62977118    -0.77500
C166        C  0.34373386  0.20371615  0.62973180     0.83200
N167        N  0.33463547  0.21561056  0.33146930    -0.77500
C168        C  0.34387097  0.20371598  0.36643700     0.83300
N169        N  0.36235492  0.18002180  0.36630474    -0.79200
N170        N  0.01162838  0.47229613  0.66503058    -0.36100
N171        N  0.05746034  0.01800218  0.66219722    -0.56600
N172        N  0.01145081  0.06385442  0.66444511    -0.36100
N173        N  0.46566070  0.01816617  0.66052869    -0.56600
C174        C  0.03590796  0.45526696  0.65885432     0.27500
C175        C  0.48748262  0.45535656  0.65790477     0.27500
C176        C  0.03564706  0.08086707  0.65815849     0.27500
C177        C  0.48730894  0.08090565  0.65782142     0.27500
C178        C  0.07511506  0.49397880  0.66683864     0.36100
C179        C  0.07492737  0.04211378  0.66632009     0.36100
C180        C  0.44814603  0.49422355  0.66495781     0.36100
C181        C  0.44806595  0.04218278  0.66513727     0.36100
C182        C  0.02701737  0.42701416  0.64813334    -0.21300
C183        C  0.49656749  0.42702320  0.64776996    -0.21300
C184        C  0.02676098  0.10923322  0.64787665    -0.21300
C185        C  0.49629732  0.10928409  0.64775711    -0.21300
C186        C  0.10407550  0.00301920  0.67299186    -0.22400
C187        C  0.10394182  0.03338496  0.67275223    -0.22400
C188        C  0.41925718  0.00300635  0.67243091    -0.22400
C189        C  0.41919149  0.03335660  0.67225666    -0.22400
C190        C  0.06589723  0.46408478  0.66352541    -0.17800
C191        C  0.45742886  0.46431518  0.66145521    -0.17800
C192        C  0.45736094  0.07203197  0.66194217    -0.17700
C193        C  0.06554084  0.07194429  0.66264029    -0.17700
H194        H  0.04101310  0.40825234  0.64131352     0.15200
H195        H  0.48271012  0.40828258  0.64050062     0.15200
H196        H  0.04073579  0.12803922  0.64126760     0.15200
H197        H  0.48238228  0.12809443  0.64088786     0.15200
H198        H  0.12325542  0.48906037  0.67785582     0.13400
H199        H  0.12310097  0.04742488  0.67667517     0.13400
H200        H  0.40016124  0.48922477  0.67746430     0.13400
H201        H  0.40004183  0.04731302  0.67694926     0.13400
H202        H  0.01146700  0.49384136  0.67535406     0.26700
H203        H  0.01139934  0.04226825  0.67461470     0.26700
C204        C  0.16127330  0.15810975  0.33071401     0.80800
N205        N  0.17359035  0.16787214  0.62944143    -0.77000
C206        C  0.19777985  0.18566963  0.62993096     0.83200
N207        N  0.20969817  0.19420098  0.33200043    -0.77500
C208        C  0.19728307  0.18509114  0.36675599     0.83300
N209        N  0.17307657  0.16723606  0.36600586    -0.79200
C210        C  0.33206547  0.21516297  0.59212214     0.43000
N211        N  0.30386097  0.22046285  0.54146909     0.01900
C212        C  0.28727527  0.34473811  0.42273093    -0.06000
H213        H  0.26958785  0.36035873  0.58144824     0.07400
C214        C  0.18507942  0.29238990  0.57291970    -0.06300
Co215      Co  0.31550080  0.27718185  0.49797469     0.74200
N216        N  0.28497844  0.32597411  0.54162723    -0.25500
Co217      Co  0.25253125  0.32111331  0.49753281     0.74100
C218        C  0.19145702  0.32087430  0.59142275     0.43100
N219        N  0.21484788  0.22576786  0.54174244     0.01500
N220        N  0.21995990  0.31505208  0.54095333     0.01600
N221        N  0.32840074  0.31627397  0.42539838    -0.46400
H222        H  0.35475186  0.25997329  0.58132162     0.07400
N223        N  0.30910837  0.30947618  0.54137417     0.01900
N224        N  0.22020792  0.31467305  0.45396516     0.01600
C225        C  0.19168643  0.32020922  0.40356826     0.43200
N226        N  0.23898641  0.20928078  0.54201917    -0.25000
C227        C  0.33887768  0.24328194  0.42302985    -0.05900
N228        N  0.31021582  0.20221529  0.57116386    -0.46100
N229        N  0.21374437  0.33297660  0.42436426    -0.46300
C230        C  0.33224182  0.21509521  0.40407522     0.43000
N231        N  0.30965853  0.30963987  0.45448597     0.01900
N232        N  0.23875148  0.20891980  0.45436894    -0.25000
N233        N  0.32025830  0.24462825  0.54177751    -0.25500
N234        N  0.21458978  0.22536603  0.45472091     0.01500
H235        H  0.25365927  0.17385250  0.41533036     0.07400
H236        H  0.16885868  0.27544669  0.41463787     0.07500
N237        N  0.28548579  0.32605956  0.45384069    -0.25500
N238        N  0.20358448  0.29086605  0.54158634    -0.25100
N239        N  0.30384397  0.22047984  0.45454862     0.01900
C240        C  0.31430430  0.33738366  0.59231974     0.43300
C241        C  0.23775063  0.19090006  0.57346717    -0.06400
N242        N  0.20367192  0.29057020  0.45385607    -0.25100
H243        H  0.16896341  0.27585324  0.58133008     0.07400
N244        N  0.32727773  0.31563860  0.57116033    -0.46400
H245        H  0.25432182  0.17474382  0.58163030     0.07400
C246        C  0.20865971  0.19638682  0.40480305     0.43100
C247        C  0.33864898  0.24338568  0.57314249    -0.05900
Co248      Co  0.27149638  0.21411117  0.49805467     0.73800
N249        N  0.19660771  0.21945214  0.57149278    -0.46100
C250        C  0.31594211  0.33846879  0.40444665     0.43400
N251        N  0.31022305  0.20223194  0.42489661    -0.46100
Co252      Co  0.20850135  0.25803237  0.49798422     0.73900
C253        C  0.18511514  0.29193925  0.42262317    -0.06400
C254        C  0.28616838  0.34423543  0.57318475    -0.06000
N255        N  0.32036271  0.24458275  0.45429848    -0.25500
N256        N  0.21344216  0.33356385  0.57030100    -0.46300
H257        H  0.27083539  0.36097573  0.41438922     0.07400
C258        C  0.23716401  0.19011655  0.42341150    -0.06400
Cl259      Cl  0.26198833  0.26761261  0.49781537    -0.49400
C260        C  0.20955407  0.19760590  0.59255758     0.43200
H261        H  0.35506424  0.25982147  0.41488490     0.07400
N262        N  0.19605663  0.21864465  0.42550881    -0.46100
C263        C  0.10318245  0.10302749  0.62703533     0.24100
C264        C  0.08879300  0.09533471  0.32910287    -0.24000
C265        C  0.09703663  0.10918361  0.36474469     0.19000
C266        C  0.12008015  0.12990181  0.36525403     0.24100
C267        C  0.13542810  0.13732475  0.32986673    -0.23900
C268        C  0.12615675  0.12383290  0.62720759     0.19000
F269        F  0.13969286  0.13010360  0.59207475    -0.13900
F270        F  0.09517669  0.09005310  0.59219760    -0.16200
F271        F  0.12726872  0.14253882  0.40060904    -0.16200
F272        F  0.08295768  0.10226428  0.39927466    -0.13900
C273        C  0.43226866  0.11423222  0.36304140     0.24100
C274        C  0.43456527  0.09588274  0.32945839    -0.24000
C275        C  0.41629679  0.10119857  0.63001383     0.19000
C276        C  0.39571992  0.12438274  0.63067027     0.24100
C277        C  0.39301178  0.14280875  0.33109769    -0.23900
C278        C  0.41173397  0.13742524  0.36396513     0.19000
F279        F  0.41091735  0.15509746  0.39664410    -0.13900
F280        F  0.45028859  0.10983560  0.39484264    -0.16200
F281        F  0.37843471  0.12868200  0.59812026    -0.16200
F282        F  0.41886864  0.08430556  0.59676137    -0.13900
C283        C  0.11268190  0.39893915  0.69810312     0.24100
C284        C  0.13150380  0.39401063  0.33169678    -0.24000
C285        C  0.12872937  0.41285362  0.29828189     0.19000
C286        C  0.10784810  0.43585950  0.29800497     0.24100
C287        C  0.08904124  0.44040929  0.66427116    -0.23900
C288        C  0.09166901  0.42175720  0.69753425     0.19000
F289        F  0.07358384  0.42553399  0.72946502    -0.13900
F290        F  0.11394874  0.38119091  0.73069995    -0.16200
F291        F  0.10613616  0.45402054  0.59926611    -0.16200
F292        F  0.14635398  0.40925934  0.26585353    -0.13900
C293        C  0.40870184  0.39967816  0.35991112     0.24100
C294        C  0.38804090  0.39831356  0.32850370    -0.24000
C295        C  0.39109029  0.41829771  0.62948891     0.19000
C296        C  0.41395010  0.43921307  0.62908671     0.24100
C297        C  0.43407601  0.44090966  0.66086546    -0.23900
C298        C  0.43135395  0.42085958  0.35964025     0.19000
F299        F  0.45034414  0.42224361  0.39089158    -0.13900
F300        F  0.40722922  0.38031584  0.39077860    -0.16200
F301        F  0.41613820  0.45829626  0.59795296    -0.16200
F302        F  0.37143862  0.41831448  0.59892452    -0.13900
C303        C  0.36273019  0.37714077  0.66302803     0.80800
N304        N  0.35020672  0.36745514  0.96200767    -0.77500
C305        C  0.32628632  0.34931736  0.96285212     0.83200
N306        N  0.31484822  0.34051263  0.99834034    -0.77500
C307        C  0.32746764  0.34956218  0.69961535     0.83300
N308        N  0.35149487  0.36768893  0.69856110    -0.79200
C309        C  0.15253919  0.36845654  0.66470932     0.80800
N310        N  0.16199135  0.35616824  0.69953267    -0.77500
C311        C  0.17995018  0.33203619  0.69936280     0.83200
N312        N  0.18877322  0.32009428  0.99754366    -0.77500
C313        C  0.18002195  0.33245105  0.96261191     0.83300
N314        N  0.16215406  0.35666668  0.96295125    -0.79200
C315        C  0.37188210  0.16814041  0.66468606     0.80800
N316        N  0.36205182  0.17994896  0.96300009    -0.77500
C317        C  0.34361976  0.20367260  0.96300927     0.83200
N318        N  0.33471000  0.21567032  0.66476281    -0.77500
C319        C  0.34388989  0.20376422  0.69974638     0.83300
N320        N  0.36229317  0.18001280  0.69965409    -0.79200
N321        N  0.01171041  0.47226537  0.99832128    -0.36100
N322        N  0.05749136  0.01795835  0.99556583    -0.56600
N323        N  0.01150606  0.06384423  0.99758917    -0.36100
N324        N  0.46565433  0.01819522  0.99348851    -0.56600
C325        C  0.03599183  0.45521794  0.99235895     0.27500
C326        C  0.48755292  0.45529345  0.99161349     0.27500
C327        C  0.03572941  0.08083760  0.99138461     0.27500
C328        C  0.48739023  0.08087341  0.99082716     0.27500
C329        C  0.07521180  0.49404155  0.99970158     0.36100
C330        C  0.07497112  0.04205810  0.99971548     0.36100
C331        C  0.44819199  0.49416195  0.99846988     0.36100
C332        C  0.44809561  0.04223198  0.99819833     0.36100
C333        C  0.02709651  0.42683435  0.98228659    -0.21300
C334        C  0.49664020  0.42693815  0.98159828    -0.21300
C335        C  0.02687861  0.10921231  0.98108791    -0.21300
C336        C  0.49644646  0.10918964  0.98056459    -0.21300
C337        C  0.10407620  0.00294157  0.00650937    -0.22400
C338        C  0.10396833  0.03330801  0.00623901    -0.22400
C339        C  0.41927510  0.00307997  0.00567733    -0.22400
C340        C  0.41923829  0.03343194  0.00550225    -0.22400
C341        C  0.06598806  0.46413107  0.99663734    -0.17800
C342        C  0.45749920  0.46425482  0.99511844    -0.17800
C343        C  0.45741775  0.07207398  0.99494524    -0.17700
C344        C  0.06561405  0.07189434  0.99596906    -0.17700
H345        H  0.04109012  0.40800869  0.97579065     0.15200
H346        H  0.48278249  0.40817118  0.97445673     0.15200
H347        H  0.04087734  0.12801158  0.97453760     0.15200
H348        H  0.48257581  0.12798600  0.97346783     0.15200
H349        H  0.12341734  0.48913652  0.01019063     0.13400
H350        H  0.12313360  0.04733386  0.01019792     0.13400
H351        H  0.40013450  0.48915744  0.01045711     0.13400
H352        H  0.40012070  0.04740498  0.01033710     0.13400
H353        H  0.01157021  0.49392074  0.00817834     0.26700
H354        H  0.01142169  0.04225692  0.00775145     0.26700
C355        C  0.16114951  0.15816319  0.66402126     0.80800
N356        N  0.17359995  0.16791624  0.96277621    -0.77000
C357        C  0.19779336  0.18570998  0.96324432     0.83200
N358        N  0.20961228  0.19419957  0.66525029    -0.77500
C359        C  0.19715758  0.18518080  0.70001872     0.83300
N360        N  0.17292927  0.16735087  0.69930141    -0.79200
C361        C  0.33194484  0.21514236  0.92542086     0.43000
N362        N  0.30380455  0.22044949  0.87471042     0.01900
C363        C  0.28733720  0.34478285  0.75609040    -0.06000
H364        H  0.26965699  0.36039048  0.91478115     0.07400
C365        C  0.18509624  0.29238963  0.90624538    -0.06300
Co366      Co  0.31549869  0.27718488  0.83129200     0.74200
N367        N  0.28501102  0.32598041  0.87497718    -0.25500
Co368      Co  0.25256226  0.32114971  0.83088174     0.74100
C369        C  0.19149186  0.32084798  0.92479588     0.43100
N370        N  0.21480813  0.22579297  0.87499991     0.01500
N371        N  0.21998161  0.31507125  0.87430309     0.01600
N372        N  0.32843416  0.31627797  0.75873123    -0.46400
H373        H  0.35465918  0.25994346  0.91467740     0.07400
N374        N  0.30913200  0.30947074  0.87471439     0.01900
N375        N  0.22023884  0.31474803  0.78730704     0.01600
C376        C  0.19172890  0.32031630  0.73690949     0.43200
N377        N  0.23893846  0.20929507  0.87524697    -0.25000
C378        C  0.33889318  0.24330774  0.75635709    -0.05900
N379        N  0.31012151  0.20219561  0.90441282    -0.46100
N380        N  0.21379885  0.33306126  0.75770728    -0.46300
C381        C  0.33223235  0.21514691  0.73735637     0.43000
N382        N  0.30969041  0.30965937  0.78782508     0.01900
N383        N  0.23869402  0.20900313  0.78757771    -0.25000
N384        N  0.32020862  0.24461040  0.87506075    -0.25500
N385        N  0.21453626  0.22545468  0.78796541     0.01500
H386        H  0.25356943  0.17394993  0.74849492     0.07400
H387        H  0.16885287  0.27557965  0.74796361     0.07500
N388        N  0.28553040  0.32609834  0.78719204    -0.25500
N389        N  0.20359544  0.29089151  0.87490590    -0.25100
N390        N  0.30380272  0.22052550  0.78779159     0.01900
C391        C  0.31436998  0.33740246  0.92563267     0.43300
C392        C  0.23772026  0.19092237  0.90670664    -0.06400
N393        N  0.20367816  0.29066165  0.78718814    -0.25100
H394        H  0.16897453  0.27585144  0.91463025     0.07400
N395        N  0.32731925  0.31563695  0.90448133    -0.46400
H396        H  0.25429755  0.17477057  0.91486240     0.07400
C397        C  0.20856867  0.19649749  0.73803522     0.43100
C398        C  0.33856388  0.24335957  0.90645870    -0.05900
Co399      Co  0.27144515  0.21414163  0.83127735     0.73800
N400        N  0.19659154  0.21949363  0.90478595    -0.46100
C401        C  0.31599697  0.33849267  0.73779381     0.43400
N402        N  0.31018573  0.20229058  0.75812907    -0.46100
Co403      Co  0.20848160  0.25809118  0.83127267     0.73900
C404        C  0.18512289  0.29205591  0.75595903    -0.06400
C405        C  0.28622372  0.34425180  0.90652170    -0.06000
N406        N  0.32035066  0.24460846  0.78759469    -0.25500
N407        N  0.21347416  0.33355641  0.90368544    -0.46300
H408        H  0.27090857  0.36103232  0.74775154     0.07400
C409        C  0.23708623  0.19021898  0.75660187    -0.06400
Cl410      Cl  0.26197776  0.26764554  0.83110717    -0.49400
C411        C  0.20954725  0.19764935  0.92584930     0.43200
H412        H  0.35511194  0.25983005  0.74826439     0.07400
N413        N  0.19598153  0.21874959  0.75876944    -0.46100
C414        C  0.10321015  0.10304799  0.96037590     0.24100
C415        C  0.08870953  0.09535726  0.66250976    -0.24000
C416        C  0.09680490  0.10940097  0.69807603     0.19000
C417        C  0.11982931  0.13014095  0.69854438     0.24100
C418        C  0.13530130  0.13738774  0.66319262    -0.23900
C419        C  0.12615720  0.12388578  0.96054644     0.19000
F420        F  0.13961319  0.13024981  0.92538848    -0.13900
F421        F  0.09516683  0.09012452  0.92551966    -0.16200
F422        F  0.12687559  0.14297856  0.73382013    -0.16200
F423        F  0.08260032  0.10265260  0.73257369    -0.13900
C424        C  0.43148512  0.11355444  0.69711693     0.24100
C425        C  0.43442968  0.09573819  0.66312504    -0.24000
C426        C  0.41589505  0.10090659  0.96342197     0.19000
C427        C  0.39530607  0.12408692  0.96413565     0.24100
C428        C  0.39290505  0.14269019  0.66455913    -0.23900
C429        C  0.41095484  0.13675049  0.69795469     0.19000
F430        F  0.40947994  0.15385378  0.73113824    -0.13900
F431        F  0.44886628  0.10863171  0.72942065    -0.16200
F432        F  0.37751789  0.12800125  0.93199109    -0.16200
F433        F  0.41797763  0.08362256  0.93047484    -0.13900
C434        C  0.11354580  0.39978283  0.03190769     0.24100
C435        C  0.13141293  0.39396276  0.66503588    -0.24000
C436        C  0.12895622  0.41310303  0.63189540     0.19000
C437        C  0.10806690  0.43610032  0.63163935     0.24100
C438        C  0.08916084  0.44050561  0.99741257    -0.23900
C439        C  0.09250724  0.42257849  0.03126122     0.19000
F440        F  0.07509167  0.42704127  0.06370161    -0.13900
F441        F  0.11554689  0.38280237  0.06517019    -0.16200
F442        F  0.10488378  0.45279740  0.93133046    -0.16200
F443        F  0.14691480  0.40981248  0.59974142    -0.13900
C444        C  0.40875599  0.39963665  0.69292800     0.24100
C445        C  0.38796294  0.39839014  0.66167595    -0.24000
C446        C  0.39144833  0.41800878  0.96276112     0.19000
C447        C  0.41431230  0.43891875  0.96243589     0.24100
C448        C  0.43415436  0.44085565  0.99450321    -0.23900
C449        C  0.43142015  0.42080476  0.69261414     0.19000
F450        F  0.45055755  0.42204583  0.72371292    -0.13900
F451        F  0.40740586  0.38016036  0.72367499    -0.16200
F452        F  0.41677542  0.45777441  0.93108896    -0.16200
F453        F  0.37208544  0.41779025  0.93186700    -0.13900
C454        C  0.36275709  0.87707090  0.99635936     0.80800
N455        N  0.35020290  0.86747582  0.29532020    -0.77500
C456        C  0.32630263  0.84931776  0.29619229     0.83200
N457        N  0.31488702  0.84051198  0.33169291    -0.77500
C458        C  0.32744908  0.84953256  0.03291582     0.83300
N459        N  0.35150135  0.86762331  0.03187959    -0.79200
C460        C  0.15254419  0.86841850  0.99806577     0.80800
N461        N  0.16201950  0.85613475  0.03288328    -0.77500
C462        C  0.17995558  0.83198323  0.03270537     0.83200
N463        N  0.18879300  0.82013215  0.33087266    -0.77500
C464        C  0.18005625  0.83250587  0.29594457     0.83300
N465        N  0.16218688  0.85672351  0.29629280    -0.79200
C466        C  0.37184827  0.66808953  0.99795055     0.80800
N467        N  0.36217662  0.67999472  0.29640532    -0.77500
C468        C  0.34375144  0.70372452  0.29638856     0.83200
N469        N  0.33465266  0.71560099  0.99808011    -0.77500
C470        C  0.34386800  0.70370459  0.03305521     0.83300
N471        N  0.36228786  0.67996235  0.03293637    -0.79200
N472        N  0.01169928  0.97229442  0.33164410    -0.36100
N473        N  0.05748229  0.51800146  0.32883062    -0.56600
N474        N  0.01147404  0.56385764  0.33101269    -0.36100
N475        N  0.46566823  0.51817221  0.32698325    -0.56600
C476        C  0.03597802  0.95524718  0.32560769     0.27500
C477        C  0.48754424  0.95534142  0.32464881     0.27500
C478        C  0.03567430  0.58087026  0.32473490     0.27500
C479        C  0.48735876  0.58087637  0.32428651     0.27500
C480        C  0.07519347  0.99403114  0.33316223     0.36100
C481        C  0.07495493  0.54211455  0.33290894     0.36100
C482        C  0.44820173  0.99421271  0.33159294     0.36100
C483        C  0.44810035  0.54219729  0.33171660     0.36100
C484        C  0.02707951  0.92690786  0.31531618    -0.21300
C485        C  0.49663524  0.92700159  0.31455708    -0.21300
C486        C  0.02679104  0.60923561  0.31444615    -0.21300
C487        C  0.49637631  0.60922681  0.31412957    -0.21300
C488        C  0.10410584  0.50301875  0.33955384    -0.22400
C489        C  0.10397464  0.53338417  0.33929342    -0.22400
C490        C  0.41930833  0.50303202  0.33924508    -0.22400
C491        C  0.41925362  0.53338340  0.33906462    -0.22400
C492        C  0.06597417  0.96412492  0.33001987    -0.17800
C493        C  0.45748962  0.96430164  0.32816156    -0.17800
C494        C  0.45740173  0.57204172  0.32844812    -0.17700
C495        C  0.06556855  0.57194792  0.32924122    -0.17700
H496        H  0.04107080  0.90810110  0.30871052     0.15200
H497        H  0.48278173  0.90825479  0.30730426     0.15200
H498        H  0.04076802  0.62804212  0.30784781     0.15200
H499        H  0.48248129  0.62803361  0.30717103     0.15200
H500        H  0.12338045  0.98912965  0.34382043     0.13400
H501        H  0.12313984  0.54742257  0.34317210     0.13400
H502        H  0.40020580  0.98921941  0.34402639     0.13400
H503        H  0.40013271  0.54734782  0.34392265     0.13400
H504        H  0.01155205  0.99391515  0.34165473     0.26700
H505        H  0.01142011  0.54227378  0.34118495     0.26700
C506        C  0.16119247  0.65818604  0.99740388     0.80800
N507        N  0.17363653  0.66787404  0.29610380    -0.77000
C508        C  0.19782346  0.68567600  0.29657754     0.83200
N509        N  0.20965563  0.69421823  0.99868355    -0.77500
C510        C  0.19722051  0.68514442  0.03344331     0.83300
N511        N  0.17299003  0.66731538  0.03270112    -0.79200
C512        C  0.33207303  0.71517609  0.25878559     0.43000
N513        N  0.30389275  0.72047063  0.20810542     0.01900
C514        C  0.28733082  0.84474704  0.08939681    -0.06000
H515        H  0.26967344  0.86037163  0.24812743     0.07400
C516        C  0.18514128  0.79241666  0.23960985    -0.06300
Co517      Co  0.31555410  0.77718829  0.16462446     0.74200
N518        N  0.28505223  0.82598595  0.20830191    -0.25500
Co519      Co  0.25259716  0.82114551  0.16421942     0.74100
C520        C  0.19152037  0.82089354  0.25812621     0.43100
N521        N  0.21488281  0.72579902  0.20839943     0.01500
N522        N  0.22002405  0.81508581  0.20765154     0.01600
N523        N  0.32844093  0.81625844  0.09203172    -0.46400
H524        H  0.35478186  0.75997339  0.24797975     0.07400
N525        N  0.30917897  0.80948311  0.20803817     0.01900
N526        N  0.22026830  0.81472794  0.12065428     0.01600
C527        C  0.19175742  0.82026680  0.07024740     0.43200
N528        N  0.23901541  0.70930347  0.20865614    -0.25000
C529        C  0.33891222  0.74328398  0.08965629    -0.05900
N530        N  0.31022881  0.70222855  0.23781484    -0.46100
N531        N  0.21381806  0.83303003  0.09104465    -0.46300
C532        C  0.33224996  0.71510541  0.07068982     0.43000
N533        N  0.30971377  0.80964776  0.12114630     0.01900
N534        N  0.23876070  0.70897205  0.12100324    -0.25000
N535        N  0.32029973  0.74462976  0.20841701    -0.25500
N536        N  0.21460347  0.72542487  0.12138049     0.01500
H537        H  0.25362749  0.67389514  0.08195232     0.07400
H538        H  0.16890679  0.77551964  0.08132694     0.07500
N539        N  0.28554873  0.82607968  0.12051798    -0.25500
N540        N  0.20364557  0.79090165  0.20827613    -0.25100
N541        N  0.30386573  0.72050192  0.12117633     0.01900
C542        C  0.31438704  0.83739003  0.25898443     0.43300
C543        C  0.23777787  0.69090844  0.24008901    -0.06400
N544        N  0.20372137  0.79063267  0.12054783    -0.25100
H545        H  0.16902186  0.77588004  0.24800854     0.07400
N546        N  0.32735389  0.81564155  0.23782129    -0.46400
H547        H  0.25434500  0.67474270  0.24823306     0.07400
C548        C  0.20862418  0.69643812  0.07147993     0.43100
C549        C  0.33867913  0.74338765  0.23979329    -0.05900
Co550      Co  0.27152041  0.71413806  0.16468638     0.73800
N551        N  0.19664529  0.71947561  0.23815072    -0.46100
C552        C  0.31598028  0.83845257  0.07108229     0.43400
N553        N  0.31022828  0.70225487  0.09151779    -0.46100
Co554      Co  0.20854275  0.75808128  0.16465997     0.73900
C555        C  0.18516757  0.79200721  0.08931396    -0.06400
C556        C  0.28624991  0.84424544  0.23985923    -0.06000
N557        N  0.32040130  0.74459320  0.12093197    -0.25500
N558        N  0.21350576  0.83359042  0.23700867    -0.46300
H559        H  0.27089194  0.86098569  0.08105606     0.07400
C560        C  0.23714560  0.69016880  0.09004748    -0.06400
Cl561      Cl  0.26203492  0.76764153  0.16447710    -0.49400
C562        C  0.20958620  0.69761364  0.25919424     0.43200
H563        H  0.35511041  0.75981275  0.08151288     0.07400
N564        N  0.19604553  0.71870431  0.09219580    -0.46100
C565        C  0.10316503  0.60310810  0.29366432     0.24100
C566        C  0.08877910  0.59536210  0.99579446    -0.24000
C567        C  0.09665924  0.60962028  0.03129746     0.19000
C568        C  0.11966782  0.63038030  0.03178646     0.24100
C569        C  0.13535233  0.63740911  0.99652917    -0.23900
C570        C  0.12615607  0.62389572  0.29385867     0.19000
F571        F  0.13965386  0.63021863  0.25871658    -0.13900
F572        F  0.09509942  0.59021793  0.25879541    -0.16200
F573        F  0.12647675  0.64347344  0.06697696    -0.16200
F574        F  0.08226385  0.60305981  0.06571738    -0.13900
C575        C  0.43175033  0.61375467  0.03013370     0.24100
C576        C  0.43452111  0.59579014  0.99625239    -0.24000
C577        C  0.41601226  0.60096957  0.29682427     0.19000
C578        C  0.39545776  0.62417638  0.29750861     0.24100
C579        C  0.39291643  0.64267734  0.99778303    -0.23900
C580        C  0.41118119  0.63691704  0.03101753     0.19000
F581        F  0.40987901  0.65417167  0.06407108    -0.13900
F582        F  0.44933183  0.60900363  0.06228676    -0.16200
F583        F  0.37781438  0.62821058  0.26524680    -0.16200
F584        F  0.41821598  0.58378721  0.26379466    -0.13900
C585        C  0.11318529  0.89943095  0.36503365     0.24100
C586        C  0.13144876  0.89396312  0.99838772    -0.24000
C587        C  0.12870497  0.91284304  0.96500905     0.19000
C588        C  0.10782364  0.93584567  0.96474732     0.24100
C589        C  0.08914058  0.94048240  0.33080336    -0.23900
C590        C  0.09214658  0.92222571  0.36439686     0.19000
F591        F  0.07440444  0.92636886  0.39659292    -0.13900
F592        F  0.11483303  0.88209545  0.39799923    -0.16200
F593        F  0.10555885  0.95341169  0.26524006    -0.16200
F594        F  0.14635875  0.90928566  0.93260228    -0.13900
C595        C  0.40869678  0.89965799  0.02640523     0.24100
C596        C  0.38799926  0.89831489  0.99503973    -0.24000
C597        C  0.39117021  0.91827109  0.29618901     0.19000
C598        C  0.41404591  0.93916630  0.29577220     0.24100
C599        C  0.43413680  0.94089854  0.32758578    -0.23900
C600        C  0.43134975  0.92083949  0.02611543     0.19000
F601        F  0.45039073  0.92217900  0.05731435    -0.13900
F602        F  0.40726097  0.88027192  0.05724924    -0.16200
F603        F  0.41628112  0.95819990  0.26458981    -0.16200
F604        F  0.37154253  0.91826816  0.26559692    -0.13900
C605        C  0.36277029  0.87715451  0.32974370     0.80800
N606        N  0.35019845  0.86744333  0.62869892    -0.77500
C607        C  0.32626339  0.84932743  0.62953961     0.83200
N608        N  0.31480332  0.84054399  0.66502556    -0.77500
C609        C  0.32749232  0.84957217  0.36629233     0.83300
N610        N  0.35151365  0.86770576  0.36526402    -0.79200
C611        C  0.15264206  0.86852041  0.33140123     0.80800
N612        N  0.16206325  0.85620764  0.36622489    -0.77500
C613        C  0.17996813  0.83203412  0.36605803     0.83200
N614        N  0.18872157  0.82006955  0.66413706    -0.77500
C615        C  0.17999422  0.83245571  0.62921173     0.83300
N616        N  0.16211560  0.85666736  0.62955972    -0.79200
C617        C  0.37197650  0.66819908  0.33131097     0.80800
N618        N  0.36208978  0.68001161  0.62971867    -0.77500
C619        C  0.34364102  0.70371988  0.62971247     0.83200
N620        N  0.33473117  0.71566532  0.33143233    -0.77500
C621        C  0.34395313  0.70377677  0.36640924     0.83300
N622        N  0.36240046  0.68005759  0.36629546    -0.79200
N623        N  0.01166448  0.97227597  0.66512673    -0.36100
N624        N  0.05745837  0.51795059  0.66229469    -0.56600
N625        N  0.01148058  0.56384896  0.66421853    -0.36100
N626        N  0.46564162  0.51824503  0.66008940    -0.56600
C627        C  0.03595048  0.95524128  0.65904627     0.27500
C628        C  0.48754359  0.95528011  0.65829307     0.27500
C629        C  0.03571296  0.58081781  0.65794739     0.27500
C630        C  0.48736758  0.58092458  0.65743541     0.27500
C631        C  0.07515578  0.99404086  0.66657814     0.36100
C632        C  0.07492872  0.54204815  0.66651481     0.36100
C633        C  0.44816807  0.99413254  0.66526753     0.36100
C634        C  0.44808635  0.54227914  0.66485413     0.36100
C635        C  0.02706173  0.92690794  0.64870840    -0.21300
C636        C  0.49663014  0.92691443  0.64832694    -0.21300
C637        C  0.02687951  0.60917297  0.64752531    -0.21300
C638        C  0.49641324  0.60924318  0.64716648    -0.21300
C639        C  0.10401328  0.50293379  0.67348230    -0.22400
C640        C  0.10390889  0.53329964  0.67318230    -0.22400
C641        C  0.41927681  0.50312337  0.67236052    -0.22400
C642        C  0.41923801  0.53347466  0.67220768    -0.22400
C643        C  0.06594694  0.96412972  0.66343935    -0.17800
C644        C  0.45748824  0.96423404  0.66184417    -0.17800
C645        C  0.45740226  0.57212334  0.66160944    -0.17700
C646        C  0.06558792  0.57187595  0.66262748    -0.17700
H647        H  0.04106008  0.90811600  0.64205181     0.15200
H648        H  0.48277213  0.90813050  0.64126676     0.15200
H649        H  0.04088834  0.62795276  0.64091345     0.15200
H650        H  0.48253593  0.62804132  0.64009980     0.15200
H651        H  0.12334567  0.98915934  0.67721842     0.13400
H652        H  0.12306844  0.54732522  0.67719201     0.13400
H653        H  0.40012866  0.98909079  0.67736094     0.13400
H654        H  0.40012542  0.54744451  0.67709436     0.13400
H655        H  0.01151338  0.99389066  0.67515597     0.26700
H656        H  0.01138363  0.54228591  0.67448593     0.26700
C657        C  0.16120733  0.65815993  0.33069020     0.80800
N658        N  0.17360542  0.66787869  0.62940393    -0.77000
C659        C  0.19779231  0.68568807  0.62989664     0.83200
N660        N  0.20966727  0.69420535  0.33189068    -0.77500
C661        C  0.19722546  0.68518380  0.36666728     0.83300
N662        N  0.17299660  0.66735158  0.36596393    -0.79200
C663        C  0.33198270  0.71518133  0.59211573     0.43000
N664        N  0.30385116  0.72047508  0.54139802     0.01900
C665        C  0.28735338  0.84477440  0.42274739    -0.06000
H666        H  0.26963937  0.86037087  0.58145634     0.07400
C667        C  0.18510636  0.79239018  0.57286838    -0.06300
Co668      Co  0.31554300  0.77720082  0.49796390     0.74200
N669        N  0.28502989  0.82598590  0.54163932    -0.25500
Co670      Co  0.25258985  0.82114577  0.49754154     0.74100
C671        C  0.19147675  0.82086080  0.59139949     0.43100
N672        N  0.21484869  0.72579084  0.54167052     0.01500
N673        N  0.22000585  0.81506796  0.54095241     0.01600
N674        N  0.32846498  0.81628941  0.42540064    -0.46400
H675        H  0.35470469  0.75997706  0.58135605     0.07400
N676        N  0.30916012  0.80948978  0.54137989     0.01900
N677        N  0.22027228  0.81473416  0.45397077     0.01600
C678        C  0.19174345  0.82030972  0.40359871     0.43200
N679        N  0.23898384  0.70930024  0.54193392    -0.25000
C680        C  0.33895410  0.74331686  0.42303465    -0.05900
N681        N  0.31016027  0.70223125  0.57111256    -0.46100
N682        N  0.21381569  0.83305520  0.42438870    -0.46300
C683        C  0.33230444  0.71515032  0.40403762     0.43000
N684        N  0.30972356  0.80966732  0.45449424     0.01900
N685        N  0.23875780  0.70899911  0.45424691    -0.25000
N686        N  0.32025762  0.74463465  0.54173915    -0.25500
N687        N  0.21459610  0.72544469  0.45463278     0.01500
H688        H  0.25365190  0.67396674  0.41514091     0.07400
H689        H  0.16888623  0.77556057  0.41463770     0.07500
N690        N  0.28555664  0.82609603  0.45385556    -0.25500
N691        N  0.20362576  0.79088450  0.54155348    -0.25100
N692        N  0.30386878  0.72052972  0.45447498     0.01900
C693        C  0.31436162  0.83740650  0.59231835     0.43300
C694        C  0.23775582  0.69093006  0.57339807    -0.06400
N695        N  0.20372046  0.79064238  0.45384731    -0.25100
H696        H  0.16898046  0.77585291  0.58124169     0.07400
N697        N  0.32733425  0.81565819  0.57116029    -0.46400
H698        H  0.25433248  0.67478147  0.58156731     0.07400
C699        C  0.20864551  0.69650588  0.40467914     0.43100
C700        C  0.33861040  0.74339122  0.57314029    -0.05900
Co701      Co  0.27150092  0.71414805  0.49796060     0.73800
N702        N  0.19661876  0.71948620  0.57144133    -0.46100
C703        C  0.31601518  0.83849233  0.40445613     0.43400
N704        N  0.31025818  0.70229344  0.42481426    -0.46100
Co705      Co  0.20852786  0.75808003  0.49793384     0.73900
C706        C  0.18515683  0.79203762  0.42262827    -0.06400
C707        C  0.28622009  0.84424726  0.57319463    -0.06000
N708        N  0.32041012  0.74461754  0.45427262    -0.25500
N709        N  0.21347347  0.83356479  0.57031150    -0.46300
H710        H  0.27091730  0.86101469  0.41440265     0.07400
C711        C  0.23716141  0.69022630  0.42325547    -0.06400
Cl712      Cl  0.26202272  0.76764688  0.49777653    -0.49400
C713        C  0.20956776  0.69764405  0.59251653     0.43200
H714        H  0.35516586  0.75984448  0.41493610     0.07400
N715        N  0.19604964  0.71874621  0.42542498    -0.46100
C716        C  0.10294755  0.60327095  0.62695620     0.24100
C717        C  0.08874191  0.59536265  0.32914513    -0.24000
C718        C  0.09691409  0.60931015  0.36475086     0.19000
C719        C  0.11994854  0.63004332  0.36523836     0.24100
C720        C  0.13536017  0.63737528  0.32986838    -0.23900
C721        C  0.12590002  0.62410639  0.62711613     0.19000
F722        F  0.13908606  0.63076154  0.59187077    -0.13900
F723        F  0.09465403  0.59060779  0.59203288    -0.16200
F724        F  0.12707174  0.64277963  0.40055287    -0.16200
F725        F  0.08277812  0.60247086  0.39926737    -0.13900
C726        C  0.43192791  0.61391883  0.36341980     0.24100
C727        C  0.43449379  0.59578201  0.32967305    -0.24000
C728        C  0.41584467  0.60093648  0.63015993     0.19000
C729        C  0.39525413  0.62411095  0.63089535     0.24100
C730        C  0.39301218  0.64277185  0.33115477    -0.23900
C731        C  0.41142277  0.63713649  0.36427472     0.19000
F732        F  0.41032940  0.65457372  0.39716753    -0.13900
F733        F  0.44965856  0.60929036  0.39545583    -0.16200
F734        F  0.37741140  0.62799257  0.59879870    -0.16200
F735        F  0.41789686  0.58364271  0.59721930    -0.13900
C736        C  0.11312534  0.89937237  0.69833356     0.24100
C737        C  0.13155946  0.89407764  0.33169984    -0.24000
C738        C  0.12875905  0.91287922  0.29824910     0.19000
C739        C  0.10784048  0.93584611  0.29792229     0.24100
C740        C  0.08911981  0.94048731  0.66418758    -0.23900
C741        C  0.09211519  0.92219381  0.69774626     0.19000
F742        F  0.07438882  0.92632615  0.72995998    -0.13900
F743        F  0.11476744  0.88201359  0.73127678    -0.16200
F744        F  0.10554188  0.95346296  0.59864266    -0.16200
F745        F  0.14639444  0.90928099  0.26583236    -0.13900
C746        C  0.40875288  0.89969432  0.35971597     0.24100
C747        C  0.38800048  0.89840667  0.32841572    -0.24000
C748        C  0.39144737  0.91799290  0.62945068     0.19000
C749        C  0.41430870  0.93890641  0.62914038     0.24100
C750        C  0.43414895  0.94083208  0.66121071    -0.23900
C751        C  0.43142905  0.92085030  0.35939133     0.19000
F752        F  0.45052414  0.92213804  0.39053399    -0.13900
F753        F  0.40735006  0.88027377  0.39052307    -0.16200
F754        F  0.41676850  0.95777886  0.59781034    -0.16200
F755        F  0.37208779  0.91778075  0.59855221    -0.13900
C756        C  0.36275053  0.87711209  0.66313938     0.80800
N757        N  0.35015506  0.86742760  0.96193862    -0.77500
C758        C  0.32621773  0.84931575  0.96281724     0.83200
N759        N  0.31480604  0.84051381  0.99832183    -0.77500
C760        C  0.32739564  0.84958522  0.69964207     0.83300
N761        N  0.35144294  0.86768337  0.69864129    -0.79200
C762        C  0.15255289  0.86844753  0.66466875     0.80800
N763        N  0.16196679  0.85612201  0.69949141    -0.77500
C764        C  0.17987832  0.83195176  0.69932541     0.83200
N765        N  0.18875264  0.82007366  0.99750929    -0.77500
C766        C  0.17995611  0.83241748  0.96258586     0.83300
N767        N  0.16206057  0.85661576  0.96294841    -0.79200
C768        C  0.37189294  0.66821561  0.66461836     0.80800
N769        N  0.36204800  0.67989411  0.96304883    -0.77500
C770        C  0.34364690  0.70364368  0.96303471     0.83200
N771        N  0.33459630  0.71563777  0.66475700    -0.77500
C772        C  0.34381935  0.70374468  0.69972926     0.83300
N773        N  0.36229834  0.68004811  0.69961072    -0.79200
N774        N  0.01165743  0.97227251  0.99842250    -0.36100
N775        N  0.05751703  0.51800983  0.99539471    -0.56600
N776        N  0.01151420  0.56387586  0.99776329    -0.36100
N777        N  0.46570536  0.51818232  0.99373005    -0.56600
C778        C  0.03593571  0.95522032  0.99238019     0.27500
C779        C  0.48749337  0.95530510  0.99135141     0.27500
C780        C  0.03571082  0.58087873  0.99148360     0.27500
C781        C  0.48739443  0.58089717  0.99095457     0.27500
C782        C  0.07515944  0.99398444  0.00001761     0.36100
C783        C  0.07499696  0.54211316  0.99950025     0.36100
C784        C  0.44815259  0.99417667  0.99834097     0.36100
C785        C  0.44811779  0.54221320  0.99826647     0.36100
C786        C  0.02703827  0.92689724  0.98200551    -0.21300
C787        C  0.49658180  0.92696512  0.98125493    -0.21300
C788        C  0.02682188  0.60924745  0.98122393    -0.21300
C789        C  0.49641514  0.60924027  0.98076756    -0.21300
C790        C  0.10414608  0.50300676  0.00603090    -0.22400
C791        C  0.10401893  0.53337255  0.00584425    -0.22400
C792        C  0.41927760  0.50305741  0.00555122    -0.22400
C793        C  0.41922995  0.53340681  0.00533519    -0.22400
C794        C  0.06593145  0.96408094  0.99685251    -0.17800
C795        C  0.45743869  0.96426704  0.99487798    -0.17800
C796        C  0.45743455  0.57205752  0.99505943    -0.17700
C797        C  0.06560849  0.57194985  0.99591549    -0.17700
H798        H  0.04102898  0.90809588  0.97536821     0.15200
H799        H  0.48272548  0.90821966  0.97400524     0.15200
H800        H  0.04079687  0.62805124  0.97460768     0.15200
H801        H  0.48252032  0.62803741  0.97376222     0.15200
H802        H  0.12332810  0.98906730  0.01080144     0.13400
H803        H  0.12318539  0.54740482  0.00975273     0.13400
H804        H  0.40015298  0.98918295  0.01074559     0.13400
H805        H  0.40008103  0.54737454  0.00996845     0.13400
H806        H  0.01150797  0.99388217  0.00847613     0.26700
H807        H  0.01146310  0.54229253  0.00794967     0.26700
C808        C  0.16119714  0.65811927  0.66398482     0.80800
N809        N  0.17361227  0.66794832  0.96283991    -0.77000
C810        C  0.19780106  0.68574328  0.96335019     0.83200
N811        N  0.20965175  0.69417442  0.66522501    -0.77500
C812        C  0.19722931  0.68510086  0.69999256     0.83300
N813        N  0.17300993  0.66726507  0.69926169    -0.79200
C814        C  0.33197693  0.71511188  0.92543267     0.43000
N815        N  0.30379653  0.72042573  0.87475572     0.01900
C816        C  0.28723940  0.84475210  0.75608146    -0.06000
H817        H  0.26956733  0.86037081  0.91475399     0.07400
C818        C  0.18501553  0.79234707  0.90621349    -0.06300
Co819      Co  0.31544285  0.77716370  0.83129627     0.74200
N820        N  0.28492865  0.82595639  0.87495898    -0.25500
Co821      Co  0.25248072  0.82109905  0.83085933     0.74100
C822        C  0.19140242  0.82081538  0.92475163     0.43100
N823        N  0.21479065  0.72575471  0.87504160     0.01500
N824        N  0.21990173  0.81502163  0.87427059     0.01600
N825        N  0.32835835  0.81627913  0.75873418    -0.46400
H826        H  0.35465971  0.75993067  0.91467776     0.07400
N827        N  0.30905541  0.80945380  0.87470257     0.01900
N828        N  0.22016372  0.81466745  0.78727846     0.01600
C829        C  0.19165497  0.82022114  0.73687228     0.43200
N830        N  0.23893125  0.70927073  0.87531771    -0.25000
C831        C  0.33881375  0.74329257  0.75633523    -0.05900
N832        N  0.31014301  0.70216700  0.90444244    -0.46100
N833        N  0.21370933  0.83297983  0.75768379    -0.46300
C834        C  0.33217299  0.71511794  0.73735614     0.43000
N835        N  0.30961262  0.80963651  0.78781580     0.01900
N836        N  0.23869092  0.70890943  0.78763755    -0.25000
N837        N  0.32018854  0.74459462  0.87509142    -0.25500
N838        N  0.21452978  0.72535588  0.78799136     0.01500
H839        H  0.25361131  0.67386532  0.74856692     0.07400
H840        H  0.16882257  0.77545608  0.74790491     0.07500
N841        N  0.28544240  0.82606010  0.78717657    -0.25500
N842        N  0.20352122  0.79083872  0.87487936    -0.25100
N843        N  0.30378036  0.72047518  0.78783607     0.01900
C844        C  0.31428539  0.83739116  0.92561443     0.43300
C845        C  0.23773660  0.69094654  0.90682992    -0.06400
N846        N  0.20362624  0.79056486  0.78714921    -0.25100
H847        H  0.16889893  0.77580682  0.91460882     0.07400
N848        N  0.32724037  0.81562901  0.90446649    -0.46400
H849        H  0.25432744  0.67481951  0.91502405     0.07400
C850        C  0.20861616  0.69640694  0.73803370     0.43100
C851        C  0.33856389  0.74334321  0.90647355    -0.05900
Co852      Co  0.27143323  0.71409240  0.83133659     0.73800
N853        N  0.19658965  0.71949158  0.90485810    -0.46100
C854        C  0.31590629  0.83848562  0.73779447     0.43400
N855        N  0.31015693  0.70224210  0.75816746    -0.46100
Co856      Co  0.20844234  0.75801597  0.83126968     0.73900
C857        C  0.18507819  0.79194479  0.75590749    -0.06400
C858        C  0.28613746  0.84423419  0.90649913    -0.06000
N859        N  0.32030088  0.74457731  0.78760592    -0.25500
N860        N  0.21338804  0.83351536  0.90364032    -0.46300
H861        H  0.27080302  0.86099576  0.74774883     0.07400
C862        C  0.23711260  0.69012320  0.75665800    -0.06400
Cl863      Cl  0.26193115  0.76759675  0.83111750    -0.49400
C864        C  0.20957231  0.69769454  0.92597745     0.43200
H865        H  0.35499979  0.75983609  0.74820310     0.07400
N866        N  0.19600536  0.71865038  0.75876066    -0.46100
C867        C  0.10346530  0.60282376  0.96039748     0.24100
C868        C  0.08878324  0.59526247  0.66252302    -0.24000
C869        C  0.09719218  0.60896198  0.69819495     0.19000
C870        C  0.12019668  0.62972030  0.69865287     0.24100
C871        C  0.13535151  0.63732864  0.66318391    -0.23900
C872        C  0.12643307  0.62363433  0.96059625     0.19000
F873        F  0.14019946  0.62968160  0.92555445    -0.13900
F874        F  0.09568051  0.58963344  0.92561608    -0.16200
F875        F  0.12753815  0.64220993  0.73404495    -0.16200
F876        F  0.08330647  0.60186355  0.73280044    -0.13900
C877        C  0.43210832  0.61416803  0.69650331     0.24100
C878        C  0.43450867  0.59588919  0.66286507    -0.24000
C879        C  0.41619102  0.60109471  0.96328813     0.19000
C880        C  0.39557366  0.62424550  0.96399597     0.24100
C881        C  0.39296521  0.64282672  0.66443440    -0.23900
C882        C  0.41157528  0.63736337  0.69739545     0.19000
F883        F  0.41064855  0.65495579  0.73014763    -0.13900
F884        F  0.45001953  0.60969682  0.72839641    -0.16200
F885        F  0.37808565  0.62838708  0.93160616    -0.16200
F886        F  0.41859786  0.58407357  0.93013224    -0.13900
C887        C  0.11301961  0.89923497  0.03168639     0.24100
C888        C  0.13147537  0.89401454  0.66497819    -0.24000
C889        C  0.12867218  0.91283755  0.63154546     0.19000
C890        C  0.10780025  0.93585209  0.63128415     0.24100
C891        C  0.08908584  0.94042219  0.99760555    -0.23900
C892        C  0.09200431  0.92205268  0.03110442     0.19000
F893        F  0.07419432  0.92610088  0.06325430    -0.13900
F894        F  0.11458529  0.88178781  0.06455236    -0.16200
F895        F  0.10560762  0.95350033  0.93214370    -0.16200
F896        F  0.14625509  0.90921312  0.59908216    -0.13900
C897        C  0.40853357  0.89982748  0.69344274     0.24100
C898        C  0.38802093  0.89833173  0.66186553    -0.24000
C899        C  0.39120975  0.91814917  0.96278472     0.19000
C900        C  0.41405171  0.93908303  0.96241837     0.24100
C901        C  0.43408815  0.94086277  0.99428795    -0.23900
C902        C  0.43120166  0.92098969  0.69319999     0.19000
F903        F  0.45004042  0.92250032  0.72460603    -0.13900
F904        F  0.40689660  0.88061802  0.72446772    -0.16200
F905        F  0.41630911  0.95810315  0.93122435    -0.16200
F906        F  0.37165402  0.91807967  0.93210979    -0.13900
C907        C  0.86279265  0.37708345  0.99642238     0.80800
N908        N  0.85015864  0.36747912  0.29535038    -0.77500
C909        C  0.82623780  0.34934457  0.29619229     0.83200
N910        N  0.81480220  0.34053306  0.33168047    -0.77500
C911        C  0.82746899  0.34952798  0.03293176     0.83300
N912        N  0.85149591  0.36764958  0.03192510    -0.79200
C913        C  0.65260529  0.36849136  0.99805393     0.80800
N914        N  0.66204026  0.35617623  0.03287218    -0.77500
C915        C  0.67994695  0.33200245  0.03269814     0.83200
N916        N  0.68876833  0.32006666  0.33084793    -0.77500
C917        C  0.68003171  0.33244190  0.29591895     0.83300
N918        N  0.66214959  0.35664990  0.29626435    -0.79200
C919        C  0.87188836  0.16815769  0.99788881     0.80800
N920        N  0.86211084  0.17998020  0.29639997    -0.77500
C921        C  0.84366964  0.20369725  0.29640373     0.83200
N922        N  0.83460753  0.21559958  0.99805059    -0.77500
C923        C  0.84386634  0.20372752  0.03302107     0.83300
N924        N  0.86233305  0.18001902  0.03288685    -0.79200
N925        N  0.51168588  0.47226187  0.33171246    -0.36100
N926        N  0.55750692  0.01799541  0.32882501    -0.56600
N927        N  0.51152242  0.06387764  0.33085171    -0.36100
N928        N  0.96569738  0.01821533  0.32686476    -0.56600
C929        C  0.53596590  0.45521868  0.32565725     0.27500
C930        C  0.98753077  0.45529190  0.32493026     0.27500
C931        C  0.53574079  0.08086047  0.32457283     0.27500
C932        C  0.98740098  0.08089966  0.32411189     0.27500
C933        C  0.57518158  0.49400991  0.33316371     0.36100
C934        C  0.57498711  0.04209801  0.33292735     0.36100
C935        C  0.94817850  0.49415725  0.33193580     0.36100
C936        C  0.94813154  0.04224523  0.33158184     0.36100
C937        C  0.52706736  0.42688023  0.31536122    -0.21300
C938        C  0.99661965  0.42693622  0.31491450    -0.21300
C939        C  0.52688895  0.10921667  0.31418960    -0.21300
C940        C  0.99643211  0.10921453  0.31380222    -0.21300
C941        C  0.60410804  0.00299466  0.33969013    -0.22400
C942        C  0.60399421  0.03335826  0.33939326    -0.22400
C943        C  0.91932831  0.00308618  0.33909087    -0.22400
C944        C  0.91928036  0.03343698  0.33890834    -0.22400
C945        C  0.56596382  0.46409992  0.33005096    -0.17800
C946        C  0.95747350  0.46425016  0.32847744    -0.17800
C947        C  0.95743940  0.07208862  0.32830719    -0.17700
C948        C  0.56562213  0.07192784  0.32917576    -0.17700
H949        H  0.54105903  0.40807603  0.30874365     0.15200
H950        H  0.98276404  0.40816670  0.30777505     0.15200
H951        H  0.54088529  0.12800372  0.30756795     0.15200
H952        H  0.98254406  0.12800123  0.30672146     0.15200
H953        H  0.62338135  0.48912032  0.34371809     0.13400
H954        H  0.62316355  0.04738831  0.34328960     0.13400
H955        H  0.90019158  0.48914525  0.34442061     0.13400
H956        H  0.90015914  0.04740398  0.34374861     0.13400
H957        H  0.51153890  0.49387924  0.34173323     0.26700
H958        H  0.51144060  0.04231131  0.34110458     0.26700
C959        C  0.66118524  0.15816453  0.99738154     0.80800
N960        N  0.67365342  0.16791524  0.29615299    -0.77000
C961        C  0.69783382  0.18572857  0.29665367     0.83200
N962        N  0.70965831  0.19419735  0.99855155    -0.77500
C963        C  0.69724533  0.18515098  0.03333854     0.83300
N964        N  0.67301238  0.16732645  0.03264536    -0.79200
C965        C  0.83200123  0.21516936  0.25880838     0.43000
N966        N  0.80385879  0.22046434  0.20809401     0.01900
C967        C  0.78732410  0.34473775  0.08937866    -0.06000
H968        H  0.76962554  0.36039081  0.24807558     0.07400
C969        C  0.68512064  0.29237523  0.23956387    -0.06300
Co970      Co  0.81553258  0.27718655  0.16463002     0.74200
N971        N  0.78501561  0.32598845  0.20828380    -0.25500
Co972      Co  0.75257312  0.32113240  0.16419047     0.74100
C973        C  0.69150418  0.32084153  0.25810088     0.43100
N974        N  0.71485332  0.22578742  0.20837483     0.01500
N975        N  0.71999515  0.31506132  0.20761033     0.01600
N976        N  0.82844068  0.31625963  0.09204812    -0.46400
H977        H  0.85471346  0.25997109  0.24803834     0.07400
N978        N  0.80914320  0.30948726  0.20804006     0.01900
N979        N  0.72025482  0.31470843  0.12062042     0.01600
C980        C  0.69173157  0.32027265  0.07023616     0.43200
N981        N  0.73899255  0.20930228  0.20864782    -0.25000
C982        C  0.83890472  0.24329174  0.08965210    -0.05900
N983        N  0.81017680  0.20222039  0.23780666    -0.46100
N984        N  0.71379747  0.33302431  0.09103167    -0.46300
C985        C  0.83224725  0.21511680  0.07066863     0.43000
N986        N  0.80970348  0.30964620  0.12114912     0.01900
N987        N  0.73875820  0.20896208  0.12095309    -0.25000
N988        N  0.82026174  0.24462610  0.20842713    -0.25500
N989        N  0.71459696  0.22540856  0.12132437     0.01500
H990        H  0.75366643  0.17393017  0.08185337     0.07400
H991        H  0.66888434  0.27551797  0.08128204     0.07500
N992        N  0.78553461  0.32607229  0.12050173    -0.25500
N993        N  0.70361856  0.29087565  0.20822377    -0.25100
N994        N  0.80386009  0.22049810  0.12116205     0.01900
C995        C  0.81434038  0.33741964  0.25896804     0.43300
C996        C  0.73778284  0.19096035  0.24014240    -0.06400
N997        N  0.70370892  0.29061230  0.12050082    -0.25100
H998        H  0.66900798  0.27583161  0.24796021     0.07400
N999        N  0.82731127  0.31566074  0.23782589    -0.46400
H1000       H  0.75436760  0.17482470  0.24832770     0.07400
C1001       C  0.70866524  0.19647259  0.07135710     0.43100
C1002       C  0.83861921  0.24338372  0.23982771    -0.05900
Co1003     Co  0.77150226  0.21412939  0.16466355     0.73800
N1004       N  0.69663799  0.21950517  0.23817124    -0.46100
C1005       C  0.81598235  0.33844806  0.07108633     0.43400
N1006       N  0.81022476  0.20226080  0.09149161    -0.46100
Co1007     Co  0.70852200  0.25805962  0.16461180     0.73900
C1008       C  0.68515018  0.29199958  0.08927315    -0.06400
C1009       C  0.78620513  0.34426199  0.23982766    -0.06000
N1010       N  0.82039383  0.24459127  0.12093064    -0.25500
N1011       N  0.71348199  0.33355230  0.23698442    -0.46300
H1012       H  0.77088513  0.36097236  0.08102398     0.07400
C1013       C  0.73717138  0.19018727  0.08996029    -0.06400
Cl1014     Cl  0.76201501  0.26763093  0.16445086    -0.49400
C1015       C  0.70960603  0.19768969  0.25927600     0.43200
H1016       H  0.85509677  0.25982737  0.08151188     0.07400
N1017       N  0.69606227  0.21871035  0.09210236    -0.46100
C1018       C  0.60308167  0.10325254  0.29360131     0.24100
C1019       C  0.58878742  0.09527839  0.99597437    -0.24000
C1020       C  0.59703722  0.10917569  0.03158110     0.19000
C1021       C  0.62003526  0.12994920  0.03201822     0.24100
C1022       C  0.63533788  0.13737396  0.99659598    -0.23900
C1023       C  0.62606467  0.12404891  0.29381846     0.19000
F1024       F  0.63939939  0.13057904  0.25863251    -0.13900
F1025       F  0.59487804  0.09053590  0.25867520    -0.16200
F1026       F  0.62721812  0.14264744  0.06733525    -0.16200
F1027       F  0.58300056  0.10226192  0.06614368    -0.13900
C1028       C  0.93194478  0.11394384  0.02988235     0.24100
C1029       C  0.93453455  0.09583707  0.99610691    -0.24000
C1030       C  0.91593832  0.10094161  0.29679182     0.19000
C1031       C  0.89534934  0.12411907  0.29751774     0.24100
C1032       C  0.89296553  0.14275910  0.99768805    -0.23900
C1033       C  0.91139724  0.13712599  0.03078612     0.19000
F1034       F  0.91027628  0.15452763  0.06371118    -0.13900
F1035       F  0.94968120  0.10931092  0.06191083    -0.16200
F1036       F  0.87758120  0.12805871  0.26535919    -0.16200
F1037       F  0.91804803  0.08369069  0.26381661    -0.13900
C1038       C  0.61320072  0.39941343  0.36504682     0.24100
C1039       C  0.63152977  0.39406409  0.99835797    -0.24000
C1040       C  0.62849707  0.41268196  0.96474942     0.19000
C1041       C  0.60760595  0.43567408  0.96447100     0.24100
C1042       C  0.58913191  0.44045520  0.33082000    -0.23900
C1043       C  0.59218537  0.42223144  0.36443843     0.19000
F1044       F  0.57451815  0.42643444  0.39669452    -0.13900
F1045       F  0.61489206  0.38211380  0.39804212    -0.16200
F1046       F  0.60545631  0.45331441  0.26519203    -0.16200
F1047       F  0.64586106  0.40887194  0.93211211    -0.13900
C1048       C  0.90851366  0.39990096  0.02676487     0.24100
C1049       C  0.88803866  0.39833230  0.99514767    -0.24000
C1050       C  0.89120833  0.41822094  0.29629642     0.19000
C1051       C  0.91407684  0.43912585  0.29596759     0.24100
C1052       C  0.93411473  0.44085271  0.32784317    -0.23900
C1053       C  0.93117753  0.42106683  0.02648782     0.19000
F1054       F  0.94998058  0.42264683  0.05792661    -0.13900
F1055       F  0.90684154  0.38076558  0.05786982    -0.16200
F1056       F  0.91635390  0.45817812  0.26481127    -0.16200
F1057       F  0.87164869  0.41820700  0.26562535    -0.13900
C1058       C  0.86272375  0.37712916  0.32979162     0.80800
N1059       N  0.85019205  0.36743815  0.62863136    -0.77500
C1060       C  0.82627115  0.34930857  0.62952109     0.83200
N1061       N  0.81486763  0.34050771  0.66503072    -0.77500
C1062       C  0.82740699  0.34956318  0.36629536     0.83300
N1063       N  0.85144523  0.36767279  0.36529454    -0.79200
C1064       C  0.65259194  0.36843978  0.33136972     0.80800
N1065       N  0.66201336  0.35612524  0.36619545    -0.77500
C1066       C  0.67992949  0.33195794  0.36603446     0.83200
N1067       N  0.68876418  0.32014392  0.66417866    -0.77500
C1068       C  0.67998930  0.33248385  0.62924347     0.83300
N1069       N  0.66209336  0.35668374  0.62958120    -0.79200
C1070       C  0.87191444  0.16817234  0.33129534     0.80800
N1071       N  0.86212654  0.17992736  0.62976506    -0.77500
C1072       C  0.84373412  0.20368257  0.62972127     0.83200
N1073       N  0.83463494  0.21561133  0.33145698    -0.77500
C1074       C  0.84385766  0.20370784  0.36642445     0.83300
N1075       N  0.86232584  0.18000296  0.36629236    -0.79200
N1076       N  0.51162915  0.47231440  0.66494561    -0.36100
N1077       N  0.55747477  0.01802786  0.66202890    -0.56600
N1078       N  0.51144798  0.06387633  0.66444740    -0.36100
N1079       N  0.96565257  0.01817144  0.66038728    -0.56600
C1080       C  0.53590833  0.45526335  0.65888489     0.27500
C1081       C  0.98748869  0.45537633  0.65778830     0.27500
C1082       C  0.53563268  0.08090562  0.65818652     0.27500
C1083       C  0.98732819  0.08088475  0.65770128     0.27500
C1084       C  0.57512793  0.49402124  0.66658768     0.36100
C1085       C  0.57494334  0.04214214  0.66610675     0.36100
C1086       C  0.94816547  0.49422068  0.66497321     0.36100
C1087       C  0.94807375  0.04219362  0.66507076     0.36100
C1088       C  0.52701046  0.42695227  0.64845173    -0.21300
C1089       C  0.99657567  0.42709574  0.64739697    -0.21300
C1090       C  0.52672316  0.10929301  0.64804775    -0.21300
C1091       C  0.99633756  0.10923327  0.64751846    -0.21300
C1092       C  0.60411666  0.00304999  0.67262756    -0.22400
C1093       C  0.60397351  0.03341587  0.67242446    -0.22400
C1094       C  0.91926609  0.00302522  0.67245267    -0.22400
C1095       C  0.91921174  0.03337453  0.67229809    -0.22400
C1096       C  0.56590519  0.46411668  0.66339028    -0.17800
C1097       C  0.95743825  0.46431482  0.66141896    -0.17800
C1098       C  0.95737516  0.07204112  0.66185282    -0.17700
C1099       C  0.56553868  0.07197658  0.66253607    -0.17700
H1100       H  0.54100092  0.40815643  0.64178437     0.15200
H1101       H  0.98271890  0.40839875  0.63992517     0.15200
H1102       H  0.54068502  0.12811697  0.64148254     0.15200
H1103       H  0.98243733  0.12803183  0.64053629     0.15200
H1104       H  0.62329788  0.48911227  0.67737874     0.13400
H1105       H  0.62313542  0.04745788  0.67631019     0.13400
H1106       H  0.90021245  0.48922906  0.67770168     0.13400
H1107       H  0.90007732  0.04733358  0.67708535     0.13400
H1108       H  0.51147786  0.49391513  0.67503327     0.26700
H1109       H  0.51141915  0.04226619  0.67451746     0.26700
C1110       C  0.66125753  0.15812632  0.33072473     0.80800
N1111       N  0.67359026  0.16791279  0.62941745    -0.77000
C1112       C  0.69777443  0.18571436  0.62993471     0.83200
N1113       N  0.70970067  0.19419325  0.33198547    -0.77500
C1114       C  0.69728947  0.18509176  0.36674761     0.83300
N1115       N  0.67307367  0.16724888  0.36601025    -0.79200
C1116       C  0.83207436  0.21513256  0.59211029     0.43000
N1117       N  0.80386653  0.22044701  0.54146530     0.01900
C1118       C  0.78727774  0.34473791  0.42275927    -0.06000
H1119       H  0.76962141  0.36035661  0.58146758     0.07400
C1120       C  0.68507261  0.29238366  0.57290901    -0.06300
Co1121     Co  0.81551106  0.27716973  0.49797968     0.74200
N1122       N  0.78499617  0.32596305  0.54164943    -0.25500
Co1123     Co  0.75254529  0.32111082  0.49755726     0.74100
C1124       C  0.69144965  0.32086344  0.59142613     0.43100
N1125       N  0.71485242  0.22577386  0.54172689     0.01500
N1126       N  0.71996834  0.31504500  0.54097042     0.01600
N1127       N  0.82839480  0.31625897  0.42538761    -0.46400
H1128       H  0.85476329  0.25994432  0.58132605     0.07400
N1129       N  0.80912568  0.30946418  0.54138577     0.01900
N1130       N  0.72022425  0.31468437  0.45398331     0.01600
C1131       C  0.69170800  0.32023499  0.40358454     0.43200
N1132       N  0.73899016  0.20928578  0.54201609    -0.25000
C1133       C  0.83887524  0.24327310  0.42302124    -0.05900
N1134       N  0.81022190  0.20219199  0.57115110    -0.46100
N1135       N  0.71376412  0.33299644  0.42439051    -0.46300
C1136       C  0.83223318  0.21508870  0.40406370     0.43000
N1137       N  0.80966533  0.30963131  0.45449357     0.01900
N1138       N  0.73876020  0.20891926  0.45436155    -0.25000
N1139       N  0.82026624  0.24461084  0.54177931    -0.25500
N1140       N  0.71460354  0.22537292  0.45470550     0.01500
H1141       H  0.75366387  0.17384551  0.41532949     0.07400
H1142       H  0.66888079  0.27546847  0.41462483     0.07500
N1143       N  0.78549710  0.32605822  0.45386713    -0.25500
N1144       N  0.70358786  0.29086233  0.54158548    -0.25100
N1145       N  0.80384964  0.22046824  0.45455101     0.01900
C1146       C  0.81434013  0.33737975  0.59232191     0.43300
C1147       C  0.73775709  0.19092503  0.57348529    -0.06400
N1148       N  0.70368959  0.29058097  0.45385686    -0.25100
H1149       H  0.66894986  0.27584899  0.58130319     0.07400
N1150       N  0.82730465  0.31563033  0.57116014    -0.46400
H1151       H  0.75432955  0.17477554  0.58166774     0.07400
C1152       C  0.70867281  0.19639361  0.40478757     0.43100
C1153       C  0.83865814  0.24336011  0.57314242    -0.05900
Co1154     Co  0.77150155  0.21410450  0.49805288     0.73800
N1155       N  0.69661523  0.21947870  0.57148657    -0.46100
C1156       C  0.81593005  0.33845690  0.40444647     0.43400
N1157       N  0.81022170  0.20222234  0.42489442    -0.46100
Co1158     Co  0.70851178  0.25803630  0.49797357     0.73900
C1159       C  0.68513636  0.29195876  0.42262165    -0.06400
C1160       C  0.78619693  0.34422850  0.57320234    -0.06000
N1161       N  0.82036787  0.24457146  0.45429831    -0.25500
N1162       N  0.71344321  0.33355302  0.57031934    -0.46300
H1163       H  0.77083687  0.36097777  0.41442947     0.07400
C1164       C  0.73717226  0.19011500  0.42340458    -0.06400
Cl1165     Cl  0.76199907  0.26760848  0.49782049    -0.49400
C1166       C  0.70956496  0.19764898  0.59257467     0.43200
H1167       H  0.85505903  0.25981376  0.41487061     0.07400
N1168       N  0.69607281  0.21865513  0.42548928    -0.46100
C1169       C  0.60337731  0.10285666  0.62699026     0.24100
C1170       C  0.58880357  0.09532682  0.32911615    -0.24000
C1171       C  0.59711964  0.10908519  0.36479008     0.19000
C1172       C  0.62014576  0.12982172  0.36530142     0.24100
C1173       C  0.63541232  0.13734164  0.32988654    -0.23900
C1174       C  0.62636125  0.12365012  0.62718241     0.19000
F1175       F  0.64012697  0.12968634  0.59213639    -0.13900
F1176       F  0.59556849  0.08968056  0.59220862    -0.16200
F1177       F  0.62740040  0.14237559  0.40068561    -0.16200
F1178       F  0.58312757  0.10205996  0.39934549    -0.13900
C1179       C  0.93206018  0.11405464  0.36323895     0.24100
C1180       C  0.93453772  0.09584328  0.32954838    -0.24000
C1181       C  0.91593652  0.10090403  0.63025719     0.19000
C1182       C  0.89534432  0.12407388  0.63095141     0.24100
C1183       C  0.89298810  0.14277818  0.33110785    -0.23900
C1184       C  0.91152489  0.13724787  0.36412792     0.19000
F1185       F  0.91052305  0.15476851  0.39694557    -0.13900
F1186       F  0.94989299  0.10951305  0.39519410    -0.16200
F1187       F  0.87764136  0.12804116  0.59873435    -0.16200
F1188       F  0.91813629  0.08370300  0.59724493    -0.13900
C1189       C  0.61282599  0.39911851  0.69814310     0.24100
C1190       C  0.63151078  0.39400473  0.33166500    -0.24000
C1191       C  0.62866210  0.41277394  0.29818431     0.19000
C1192       C  0.60776989  0.43576790  0.29788892     0.24100
C1193       C  0.58906007  0.44045145  0.66416260    -0.23900
C1194       C  0.59180736  0.42193206  0.69754160     0.19000
F1195       F  0.57382533  0.42582811  0.72955181    -0.13900
F1196       F  0.61420837  0.38150625  0.73086441    -0.16200
F1197       F  0.60592713  0.45381123  0.59895795    -0.16200
F1198       F  0.64622363  0.40912026  0.26570620    -0.13900
C1199       C  0.90867556  0.39964498  0.35988164     0.24100
C1200       C  0.88797700  0.39835847  0.32851437    -0.24000
C1201       C  0.89098065  0.41839837  0.62963863     0.19000
C1202       C  0.91382679  0.43932449  0.62921159     0.24100
C1203       C  0.93409152  0.44090046  0.66084253    -0.23900
C1204       C  0.93134931  0.42080442  0.35963781     0.19000
F1205       F  0.95038014  0.42209888  0.39085090    -0.13900
F1206       F  0.90722087  0.38022109  0.39068070    -0.16200
F1207       F  0.91586507  0.45853494  0.59820227    -0.16200
F1208       F  0.87118137  0.41854205  0.59924841    -0.13900
C1209       C  0.86279376  0.37708932  0.66304530     0.80800
N1210       N  0.85024667  0.36739797  0.96198470    -0.77500
C1211       C  0.82632853  0.34925887  0.96283417     0.83200
N1212       N  0.81488140  0.34046865  0.99832262    -0.77500
C1213       C  0.82750739  0.34953936  0.69962182     0.83300
N1214       N  0.85155523  0.36764105  0.69857721    -0.79200
C1215       C  0.65255323  0.36848357  0.66468954     0.80800
N1216       N  0.66200603  0.35620338  0.69951999    -0.77500
C1217       C  0.67994730  0.33205620  0.69936316     0.83200
N1218       N  0.68876941  0.32010808  0.99750772    -0.77500
C1219       C  0.68002233  0.33248447  0.96258646     0.83300
N1220       N  0.66214429  0.35669390  0.96294423    -0.79200
C1221       C  0.87189103  0.16812810  0.66468667     0.80800
N1222       N  0.86205043  0.17994056  0.96299745    -0.77500
C1223       C  0.84360617  0.20365299  0.96299941     0.83200
N1224       N  0.83470645  0.21563827  0.66474968    -0.77500
C1225       C  0.84388803  0.20374036  0.69973779     0.83300
N1226       N  0.86230696  0.18000093  0.69965556    -0.79200
N1227       N  0.51169916  0.47227450  0.99850573    -0.36100
N1228       N  0.55747163  0.01794651  0.99568233    -0.56600
N1229       N  0.51148734  0.06383566  0.99771820    -0.36100
N1230       N  0.96567334  0.01819782  0.99348655    -0.56600
C1231       C  0.53597911  0.45523977  0.99244007     0.27500
C1232       C  0.98756082  0.45526581  0.99155383     0.27500
C1233       C  0.53571441  0.08081174  0.99145268     0.27500
C1234       C  0.98740391  0.08089517  0.99078868     0.27500
C1235       C  0.57519156  0.49403799  0.99992767     0.36100
C1236       C  0.57494625  0.04204424  0.99989329     0.36100
C1237       C  0.94819217  0.49414510  0.99838449     0.36100
C1238       C  0.94810841  0.04223776  0.99811873     0.36100
C1239       C  0.52708582  0.42689345  0.98217698    -0.21300
C1240       C  0.99664972  0.42687604  0.98171579    -0.21300
C1241       C  0.52687041  0.10916294  0.98103074    -0.21300
C1242       C  0.99645373  0.10923734  0.98064348    -0.21300
C1243       C  0.60404403  0.00292359  0.00670639    -0.22400
C1244       C  0.60393566  0.03329122  0.00647060    -0.22400
C1245       C  0.91927953  0.00309027  0.00558596    -0.22400
C1246       C  0.91924103  0.03344159  0.00535987    -0.22400
C1247       C  0.56597293  0.46413231  0.99679584    -0.17800
C1248       C  0.95750451  0.46423859  0.99502297    -0.17800
C1249       C  0.95743349  0.07208003  0.99487944    -0.17700
C1250       C  0.56559595  0.07187894  0.99609939    -0.17700
H1251       H  0.54108098  0.40809304  0.97555416     0.15200
H1252       H  0.98279355  0.40808010  0.97470935     0.15200
H1253       H  0.54087281  0.12794526  0.97440837     0.15200
H1254       H  0.98257889  0.12805041  0.97364138     0.15200
H1255       H  0.62337146  0.48913066  0.01062061     0.13400
H1256       H  0.62309711  0.04731581  0.01047008     0.13400
H1257       H  0.90012912  0.48913096  0.01033169     0.13400
H1258       H  0.90011563  0.04741734  0.01012403     0.13400
H1259       H  0.51155594  0.49389747  0.00850824     0.26700
H1260       H  0.51139556  0.04227382  0.00799348     0.26700
C1261       C  0.66113541  0.15819675  0.66398212     0.80800
N1262       N  0.67358699  0.16789885  0.96278492    -0.77000
C1263       C  0.69777988  0.18569764  0.96324154     0.83200
N1264       N  0.70958617  0.19424398  0.66526604    -0.77500
C1265       C  0.69711483  0.18521906  0.70002067     0.83300
N1266       N  0.67289162  0.16738185  0.69927805    -0.79200
C1267       C  0.83193670  0.21511644  0.92540281     0.43000
N1268       N  0.80379595  0.22042772  0.87469162     0.01900
C1269       C  0.78736220  0.34476608  0.75607967    -0.06000
H1270       H  0.76969722  0.36035510  0.91479211     0.07400
C1271       C  0.68509108  0.29242644  0.90622613    -0.06300
Co1272     Co  0.81550494  0.27715709  0.83127041     0.74200
N1273       N  0.78503814  0.32595484  0.87496485    -0.25500
Co1274     Co  0.75258082  0.32114604  0.83087420     0.74100
C1275       C  0.69148702  0.32088821  0.92476474     0.43100
N1276       N  0.71480074  0.22580574  0.87501098     0.01500
N1277       N  0.71999942  0.31508526  0.87430047     0.01600
N1278       N  0.82845268  0.31625170  0.75872649    -0.46400
H1279       H  0.85467584  0.25990140  0.91463767     0.07400
N1280       N  0.80915460  0.30943825  0.87469128     0.01900
N1281       N  0.72024652  0.31475963  0.78730414     0.01600
C1282       C  0.69172528  0.32033857  0.73691609     0.43200
N1283       N  0.73892359  0.20929616  0.87524342    -0.25000
C1284       C  0.83888930  0.24328018  0.75634371    -0.05900
N1285       N  0.81010437  0.20217707  0.90440164    -0.46100
N1286       N  0.71380540  0.33307520  0.75770609    -0.46300
C1287       C  0.83222075  0.21512411  0.73734011     0.43000
N1288       N  0.80970314  0.30963484  0.78781298     0.01900
N1289       N  0.73866488  0.20901063  0.78757643    -0.25000
N1290       N  0.82021267  0.24457984  0.87503289    -0.25500
N1291       N  0.71451179  0.22546875  0.78797589     0.01500
H1292       H  0.75352069  0.17395644  0.74848340     0.07400
H1293       H  0.66884048  0.27560741  0.74797891     0.07500
N1294       N  0.78554767  0.32608049  0.78717933    -0.25500
N1295       N  0.70360354  0.29091242  0.87490402    -0.25100
N1296       N  0.80378253  0.22051045  0.78776556     0.01900
C1297       C  0.81440474  0.33735155  0.92561951     0.43300
C1298       C  0.73769916  0.19091219  0.90669113    -0.06400
N1299       N  0.70367787  0.29067854  0.78719149    -0.25100
H1300       H  0.66895635  0.27589846  0.91460217     0.07400
N1301       N  0.82734752  0.31559025  0.90445615    -0.46400
H1302       H  0.75426890  0.17474817  0.91483096     0.07400
C1303       C  0.70852234  0.19651460  0.73804897     0.43100
C1304       C  0.83857224  0.24332374  0.90642579    -0.05900
Co1305     Co  0.77142684  0.21413426  0.83126386     0.73800
N1306       N  0.69658421  0.21950363  0.90479751    -0.46100
C1307       C  0.81602443  0.33847118  0.73779146     0.43400
N1308       N  0.81016360  0.20227482  0.75810260    -0.46100
Co1309     Co  0.70847709  0.25810737  0.83128007     0.73900
C1310       C  0.68511710  0.29207878  0.75596817    -0.06400
C1311       C  0.78625885  0.34421521  0.90651900    -0.06000
N1312       N  0.82034114  0.24458589  0.78757348    -0.25500
N1313       N  0.71348699  0.33358113  0.90366929    -0.46300
H1314       H  0.77093981  0.36102220  0.74774173     0.07400
C1315       C  0.73704365  0.19022890  0.75660031    -0.06400
Cl1316     Cl  0.76197779  0.26763992  0.83109879    -0.49400
C1317       C  0.70952934  0.19764185  0.92584242     0.43200
H1318       H  0.85511835  0.25979517  0.74826099     0.07400
N1319       N  0.69594800  0.21877135  0.75878735    -0.46100
C1320       C  0.60309132  0.10312278  0.96044211     0.24100
C1321       C  0.58870473  0.09539218  0.66239668    -0.24000
C1322       C  0.59661818  0.10962415  0.69790339     0.19000
C1323       C  0.61963962  0.13036738  0.69838618     0.24100
C1324       C  0.63530053  0.13741317  0.66311560    -0.23900
C1325       C  0.62603402  0.12396852  0.96058245     0.19000
F1326       F  0.63936606  0.13044516  0.92537636    -0.13900
F1327       F  0.59494156  0.09029051  0.92556987    -0.16200
F1328       F  0.62649502  0.14341332  0.73359176    -0.16200
F1329       F  0.58224759  0.10304772  0.73233637    -0.13900
C1330       C  0.93191506  0.11394023  0.69679695     0.24100
C1331       C  0.93446193  0.09577324  0.66307589    -0.24000
C1332       C  0.91604217  0.10103169  0.96327031     0.19000
C1333       C  0.89544414  0.12420135  0.96400468     0.24100
C1334       C  0.89292260  0.14270353  0.66456258    -0.23900
C1335       C  0.91137741  0.13712815  0.69765548     0.19000
F1336       F  0.91029921  0.15460028  0.73051600    -0.13900
F1337       F  0.94969923  0.10937609  0.72879642    -0.16200
F1338       F  0.87778773  0.12823197  0.93175464    -0.16200
F1339       F  0.91826576  0.08388309  0.93021114    -0.13900
C1340       C  0.61339154  0.39962148  0.03187018     0.24100
C1341       C  0.63144213  0.39400952  0.66499208    -0.24000
C1342       C  0.62887145  0.41302889  0.63173692     0.19000
C1343       C  0.60797602  0.43602060  0.63144738     0.24100
C1344       C  0.58914048  0.44049862  0.99753611    -0.23900
C1345       C  0.59235515  0.42241829  0.03126112     0.19000
F1346       F  0.57481341  0.42673219  0.06361475    -0.13900
F1347       F  0.61526869  0.38249194  0.06500722    -0.16200
F1348       F  0.60510614  0.45306700  0.93165039    -0.16200
F1349       F  0.64671610  0.40962070  0.59949053    -0.13900
C1350       C  0.90893322  0.39947244  0.69278668     0.24100
C1351       C  0.88800932  0.39835085  0.66168777    -0.24000
C1352       C  0.89147735  0.41795050  0.96268863     0.19000
C1353       C  0.91433873  0.43886369  0.96234225     0.24100
C1354       C  0.93415870  0.44084247  0.99442970    -0.23900
C1355       C  0.93158646  0.42065541  0.69245725     0.19000
F1356       F  0.95086072  0.42177276  0.72341181    -0.13900
F1357       F  0.90772157  0.37985807  0.72338487    -0.16200
F1358       F  0.91681657  0.45768457  0.93095908    -0.16200
F1359       F  0.87212605  0.41770007  0.93178128    -0.13900
C1360       C  0.86279103  0.87706356  0.99640146     0.80800
N1361       N  0.85024519  0.86743434  0.29534480    -0.77500
C1362       C  0.82633447  0.84928726  0.29620874     0.83200
N1363       N  0.81489819  0.84050131  0.33170546    -0.77500
C1364       C  0.82748233  0.84951869  0.03295002     0.83300
N1365       N  0.85152798  0.86761850  0.03191928    -0.79200
C1366       C  0.65257000  0.86843068  0.99808435     0.80800
N1367       N  0.66203527  0.85614045  0.03290133    -0.77500
C1368       C  0.67996563  0.83198607  0.03272678     0.83200
N1369       N  0.68877983  0.82013849  0.33083096    -0.77500
C1370       C  0.68003002  0.83252550  0.29591792     0.83300
N1371       N  0.66214030  0.85672848  0.29629515    -0.79200
C1372       C  0.87189837  0.66811154  0.99796426     0.80800
N1373       N  0.86214639  0.67996520  0.29643240    -0.77500
C1374       C  0.84370382  0.70368019  0.29639725     0.83200
N1375       N  0.83464524  0.71558161  0.99811675    -0.77500
C1376       C  0.84386144  0.70367438  0.03308522     0.83300
N1377       N  0.86230702  0.67995283  0.03295400    -0.79200
N1378       N  0.51168601  0.97230469  0.33167750    -0.36100
N1379       N  0.55748729  0.51797420  0.32880519    -0.56600
N1380       N  0.51147932  0.56384202  0.33101607    -0.36100
N1381       N  0.96566236  0.51818262  0.32703557    -0.56600
C1382       C  0.53596858  0.95525765  0.32564642     0.27500
C1383       C  0.98755038  0.95532169  0.32472353     0.27500
C1384       C  0.53568142  0.58084624  0.32474708     0.27500
C1385       C  0.98735177  0.58089181  0.32426664     0.27500
C1386       C  0.57518552  0.99402886  0.33326147     0.36100
C1387       C  0.57496154  0.54208324  0.33289251     0.36100
C1388       C  0.94820638  0.99419229  0.33173653     0.36100
C1389       C  0.94809450  0.54221228  0.33174369     0.36100
C1390       C  0.52707853  0.92693661  0.31524982    -0.21300
C1391       C  0.99663400  0.92696680  0.31469415    -0.21300
C1392       C  0.52680036  0.60921945  0.31449260    -0.21300
C1393       C  0.99636692  0.60923689  0.31407355    -0.21300
C1394       C  0.60410917  0.50298326  0.33952550    -0.22400
C1395       C  0.60398081  0.53334919  0.33927754    -0.22400
C1396       C  0.91930212  0.50304925  0.33930699    -0.22400
C1397       C  0.91924808  0.53339996  0.33909937    -0.22400
C1398       C  0.56596168  0.96412323  0.33013473    -0.17800
C1399       C  0.95749850  0.96428510  0.32827815    -0.17800
C1400       C  0.95739535  0.57205906  0.32845797    -0.17700
C1401       C  0.56557612  0.57191591  0.32922249    -0.17700
H1402       H  0.54107458  0.90813994  0.30860900     0.15200
H1403       H  0.98277455  0.90820415  0.30753776     0.15200
H1404       H  0.54077884  0.62802699  0.30790837     0.15200
H1405       H  0.98247017  0.62803810  0.30709106     0.15200
H1406       H  0.62336996  0.98912937  0.34395083     0.13400
H1407       H  0.62314735  0.54738534  0.34315906     0.13400
H1408       H  0.90021269  0.98918340  0.34417526     0.13400
H1409       H  0.90012624  0.54736426  0.34394929     0.13400
H1410       H  0.51152975  0.99391167  0.34174590     0.26700
H1411       H  0.51142379  0.54225457  0.34118274     0.26700
C1412       C  0.66122661  0.65815992  0.99737613     0.80800
N1413       N  0.67360659  0.66789480  0.29608425    -0.77000
C1414       C  0.69779143  0.68570000  0.29659372     0.83200
N1415       N  0.70966875  0.69422399  0.99863761    -0.77500
C1416       C  0.69722999  0.68516447  0.03340189     0.83300
N1417       N  0.67301226  0.66731929  0.03266651    -0.79200
C1418       C  0.83204293  0.71512755  0.25878710     0.43000
N1419       N  0.80386236  0.72044055  0.20811538     0.01900
C1420       C  0.78736114  0.84473818  0.08942942    -0.06000
H1421       H  0.76970194  0.86035318  0.24815358     0.07400
C1422       C  0.68510833  0.79244652  0.23957745    -0.06300
Co1423     Co  0.81555089  0.77715539  0.16464348     0.74200
N1424       N  0.78506526  0.82596209  0.20832564    -0.25500
Co1425     Co  0.75260953  0.82113551  0.16423534     0.74100
C1426       C  0.69148466  0.82092643  0.25808708     0.43100
N1427       N  0.71486101  0.72581035  0.20840798     0.01500
N1428       N  0.72002532  0.81508983  0.20765563     0.01600
N1429       N  0.82845810  0.81623053  0.09205585    -0.46400
H1430       H  0.85476984  0.75991666  0.24799263     0.07400
N1431       N  0.80918755  0.80945235  0.20805855     0.01900
N1432       N  0.72028040  0.81472585  0.12066418     0.01600
C1433       C  0.69176283  0.82027290  0.07026833     0.43200
N1434       N  0.73898620  0.70930425  0.20866464    -0.25000
C1435       C  0.83891399  0.74323801  0.08969580    -0.05900
N1436       N  0.81019101  0.70219208  0.23781955    -0.46100
N1437       N  0.71383072  0.83303069  0.09105825    -0.46300
C1438       C  0.83224607  0.71506298  0.07072644     0.43000
N1439       N  0.80972587  0.80962011  0.12116537     0.01900
N1440       N  0.73874139  0.70896959  0.12100284    -0.25000
N1441       N  0.82027908  0.74459296  0.20843109    -0.25500
N1442       N  0.71458853  0.72542847  0.12137424     0.01500
H1443       H  0.75362139  0.67390996  0.08193243     0.07400
H1444       H  0.66889882  0.77553396  0.08135026     0.07500
N1445       N  0.78556785  0.82606249  0.12054050    -0.25500
N1446       N  0.70363488  0.79091357  0.20827012    -0.25100
N1447       N  0.80384654  0.72047222  0.12119333     0.01900
C1448       C  0.81441330  0.83736283  0.25899959     0.43300
C1449       C  0.73774974  0.69092340  0.24011231    -0.06400
N1450       N  0.70372593  0.79063563  0.12055707    -0.25100
H1451       H  0.66897251  0.77592136  0.24795982     0.07400
N1452       N  0.82736915  0.81560783  0.23783613    -0.46400
H1453       H  0.75431336  0.67475623  0.24826371     0.07400
C1454       C  0.70862968  0.69646814  0.07143832     0.43100
C1455       C  0.83865930  0.74333913  0.23980397    -0.05900
Co1456     Co  0.77149365  0.71412179  0.16469500     0.73800
N1457       N  0.69662969  0.71950952  0.23817486    -0.46100
C1458       C  0.81600936  0.83843681  0.07111521     0.43400
N1459       N  0.81021105  0.70222146  0.09153931    -0.46100
Co1460     Co  0.70853228  0.75808677  0.16466168     0.73900
C1461       C  0.68516744  0.79201551  0.08933107    -0.06400
C1462       C  0.78627235  0.84422139  0.23988315    -0.06000
N1463       N  0.82039157  0.74455707  0.12095653    -0.25500
N1464       N  0.71349546  0.83360496  0.23699665    -0.46300
H1465       H  0.77093022  0.86098688  0.08109561     0.07400
C1466       C  0.73713727  0.69018060  0.09003027    -0.06400
Cl1467     Cl  0.76202811  0.76762907  0.16448841    -0.49400
C1468       C  0.70956970  0.69765366  0.25923020     0.43200
H1469       H  0.85512339  0.75975882  0.08156371     0.07400
N1470       N  0.69604385  0.71872624  0.09216476    -0.46100
C1471       C  0.60316486  0.60307187  0.29361962     0.24100
C1472       C  0.58879214  0.59534521  0.99581985    -0.24000
C1473       C  0.59677248  0.60951082  0.03134737     0.19000
C1474       C  0.61979272  0.63025728  0.03182322     0.24100
C1475       C  0.63538896  0.63737333  0.99652442    -0.23900
C1476       C  0.62612896  0.62389116  0.29380141     0.19000
F1477       F  0.63959856  0.63024927  0.25865068    -0.13900
F1478       F  0.59511318  0.59015879  0.25875966    -0.16200
F1479       F  0.62670472  0.64324299  0.06704898    -0.16200
F1480       F  0.58246092  0.60287390  0.06580387    -0.13900
C1481       C  0.93154662  0.61353820  0.03032555     0.24100
C1482       C  0.93452368  0.59576422  0.99629888    -0.24000
C1483       C  0.91584887  0.60085771  0.29697928     0.19000
C1484       C  0.89527982  0.62404965  0.29768137     0.24100
C1485       C  0.89297041  0.64269564  0.99778615    -0.23900
C1486       C  0.91099927  0.63672008  0.03119242     0.19000
F1487       F  0.90948377  0.65377144  0.06442091    -0.13900
F1488       F  0.94890752  0.60858326  0.06264052    -0.16200
F1489       F  0.87745965  0.62793771  0.26556396    -0.16200
F1490       F  0.91790882  0.58355540  0.26404753    -0.13900
C1491       C  0.61299375  0.89924608  0.36499571     0.24100
C1492       C  0.63147238  0.89397796  0.99841375    -0.24000
C1493       C  0.62869732  0.91284110  0.96502277     0.19000
C1494       C  0.60779872  0.93583057  0.96476202     0.24100
C1495       C  0.58912105  0.94047177  0.33092325    -0.23900
C1496       C  0.59197023  0.92205582  0.36438811     0.19000
F1497       F  0.57408796  0.92605383  0.39647748    -0.13900
F1498       F  0.61448976  0.88174593  0.39781731    -0.16200
F1499       F  0.60582513  0.95368273  0.26559073    -0.16200
F1500       F  0.64634491  0.90928698  0.93260921    -0.13900
C1501       C  0.90869909  0.89968415  0.02648829     0.24100
C1502       C  0.88803258  0.89830929  0.99508755    -0.24000
C1503       C  0.89126298  0.91818867  0.29619605     0.19000
C1504       C  0.91412734  0.93909652  0.29581185     0.24100
C1505       C  0.93414686  0.94088735  0.32769831    -0.23900
C1506       C  0.93134902  0.92086838  0.02620428     0.19000
F1507       F  0.95036419  0.92223394  0.05742982    -0.13900
F1508       F  0.90723697  0.88032568  0.05736148    -0.16200
F1509       F  0.91642144  0.95808567  0.26458800    -0.16200
F1510       F  0.87170472  0.91812730  0.26552390    -0.13900
C1511       C  0.86280003  0.87712115  0.32977481     0.80800
N1512       N  0.85014009  0.86747353  0.62863953    -0.77500
C1513       C  0.82622037  0.84933929  0.62949102     0.83200
N1514       N  0.81478616  0.84053205  0.66498156    -0.77500
C1515       C  0.82749142  0.84956859  0.36630817     0.83300
N1516       N  0.85152031  0.86769020  0.36528913    -0.79200
C1517       C  0.65258947  0.86849245  0.33142141     0.80800
N1518       N  0.66201903  0.85616541  0.36622931    -0.77500
C1519       C  0.67994457  0.83200878  0.36603030     0.83200
N1520       N  0.68874481  0.82008464  0.66415947    -0.77500
C1521       C  0.68000985  0.83244609  0.62922083     0.83300
N1522       N  0.66213607  0.85665751  0.62954280    -0.79200
C1523       C  0.87194580  0.66818871  0.33134891     0.80800
N1524       N  0.86205337  0.67996785  0.62966079    -0.77500
C1525       C  0.84364328  0.70370747  0.62966015     0.83200
N1526       N  0.83466423  0.71562171  0.33142948    -0.77500
C1527       C  0.84388708  0.70375036  0.36641510     0.83300
N1528       N  0.86235690  0.68004839  0.36632520    -0.79200
N1529       N  0.51169370  0.97228134  0.66508672    -0.36100
N1530       N  0.55745490  0.51799448  0.66215635    -0.56600
N1531       N  0.51146932  0.56388053  0.66427778    -0.36100
N1532       N  0.96565159  0.51823709  0.65999867    -0.56600
C1533       C  0.53597361  0.95524468  0.65900860     0.27500
C1534       C  0.98752110  0.95529335  0.65817501     0.27500
C1535       C  0.53568880  0.58086269  0.65798291     0.27500
C1536       C  0.98738942  0.58090219  0.65733955     0.27500
C1537       C  0.57518506  0.99406858  0.66632492     0.36100
C1538       C  0.57493031  0.54209481  0.66633338     0.36100
C1539       C  0.94815875  0.99414284  0.66518005     0.36100
C1540       C  0.94810574  0.54227402  0.66480971     0.36100
C1541       C  0.52707625  0.92688056  0.64884020    -0.21300
C1542       C  0.99661626  0.92695281  0.64809647    -0.21300
C1543       C  0.52683718  0.60921667  0.64758565    -0.21300
C1544       C  0.99645501  0.60921293  0.64706618    -0.21300
C1545       C  0.60404207  0.50298207  0.67309525    -0.22400
C1546       C  0.60392898  0.53334776  0.67284755    -0.22400
C1547       C  0.91931491  0.50312435  0.67249408    -0.22400
C1548       C  0.91927493  0.53347472  0.67229834    -0.22400
C1549       C  0.56597331  0.96415401  0.66326098    -0.17800
C1550       C  0.95746264  0.96424238  0.66170967    -0.17800
C1551       C  0.95741695  0.57211584  0.66150627    -0.17700
C1552       C  0.56557061  0.57192877  0.66259174    -0.17700
H1553       H  0.54106862  0.90807453  0.64223486     0.15200
H1554       H  0.98276396  0.90819326  0.64089865     0.15200
H1555       H  0.54083449  0.62800061  0.64095010     0.15200
H1556       H  0.98259067  0.62801662  0.63998106     0.15200
H1557       H  0.62339723  0.98919130  0.67677659     0.13400
H1558       H  0.62309292  0.54737497  0.67680908     0.13400
H1559       H  0.90014341  0.98911649  0.67745727     0.13400
H1560       H  0.90017491  0.54744702  0.67725997     0.13400
H1561       H  0.51155476  0.99391956  0.67501563     0.26700
H1562       H  0.51138816  0.54231526  0.67453407     0.26700
C1563       C  0.66117025  0.65815924  0.33065412     0.80800
N1564       N  0.67358315  0.66792682  0.62946460    -0.77000
C1565       C  0.69778160  0.68571629  0.62994140     0.83200
N1566       N  0.70962554  0.69420724  0.33192368    -0.77500
C1567       C  0.69717748  0.68515812  0.36668295     0.83300
N1568       N  0.67295279  0.66732455  0.36594338    -0.79200
C1569       C  0.83197322  0.71516898  0.59207020     0.43000
N1570       N  0.80381326  0.72046763  0.54138202     0.01900
C1571       C  0.78733360  0.84477925  0.42273784    -0.06000
H1572       H  0.76960556  0.86039103  0.58139467     0.07400
C1573       C  0.68509384  0.79237913  0.57287588    -0.06300
Co1574     Co  0.81549302  0.77719104  0.49794349     0.74200
N1575       N  0.78498826  0.82598683  0.54160269    -0.25500
Co1576     Co  0.75255123  0.82113703  0.49751073     0.74100
C1577       C  0.69148614  0.82084032  0.59141490     0.43100
N1578       N  0.71480846  0.72578889  0.54168298     0.01500
N1579       N  0.71997228  0.81506257  0.54092457     0.01600
N1580       N  0.82843770  0.81628382  0.42540344    -0.46400
H1581       H  0.85468085  0.75997148  0.58130381     0.07400
N1582       N  0.80911413  0.80948470  0.54135278     0.01900
N1583       N  0.72024046  0.81471248  0.45394306     0.01600
C1584       C  0.69173158  0.82027440  0.40355374     0.43200
N1585       N  0.73894555  0.70930102  0.54194939    -0.25000
C1586       C  0.83888188  0.74330214  0.42301212    -0.05900
N1587       N  0.81014318  0.70221828  0.57108201    -0.46100
N1588       N  0.71379757  0.83302447  0.42434696    -0.46300
C1589       C  0.83222809  0.71513424  0.40402580     0.43000
N1590       N  0.80968209  0.80965495  0.45447598     0.01900
N1591       N  0.73869802  0.70897034  0.45426849    -0.25000
N1592       N  0.82021491  0.74462994  0.54171725    -0.25500
N1593       N  0.71453952  0.72541977  0.45464602     0.01500
H1594       H  0.75358151  0.67391668  0.41519068     0.07400
H1595       H  0.66885817  0.77553568  0.41460762     0.07500
N1596       N  0.78551946  0.82608860  0.45383077    -0.25500
N1597       N  0.70359181  0.79087968  0.54153779    -0.25100
N1598       N  0.80380351  0.72051665  0.45446720     0.01900
C1599       C  0.81431937  0.83741518  0.59227433     0.43300
C1600       C  0.73772945  0.69094440  0.57342751    -0.06400
N1601       N  0.70368378  0.79062334  0.45382785    -0.25100
H1602       H  0.66897671  0.77583870  0.58126818     0.07400
N1603       N  0.82728818  0.81565702  0.57113069    -0.46400
H1604       H  0.75431078  0.67480187  0.58160132     0.07400
C1605       C  0.70857839  0.69645866  0.40471674     0.43100
C1606       C  0.83858262  0.74338562  0.57310176    -0.05900
Co1607     Co  0.77145049  0.71413633  0.49796433     0.73800
N1608       N  0.69658737  0.71949442  0.57146734    -0.46100
C1609       C  0.81600247  0.83849718  0.40446594     0.43400
N1610       N  0.81018613  0.70227744  0.42480843    -0.46100
Co1611     Co  0.70848295  0.75806862  0.49793029     0.73900
C1612       C  0.68512931  0.79201204  0.42259848    -0.06400
C1613       C  0.78618197  0.84425964  0.57314468    -0.06000
N1614       N  0.82034546  0.74460446  0.45425610    -0.25500
N1615       N  0.71346261  0.83355239  0.57029943    -0.46300
H1616       H  0.77090779  0.86103104  0.41439677     0.07400
C1617       C  0.73709390  0.69018187  0.42329539    -0.06400
Cl1618     Cl  0.76197625  0.76763628  0.49776287    -0.49400
C1619       C  0.70954736  0.69766471  0.59255412     0.43200
H1620       H  0.85509275  0.75982834  0.41490536     0.07400
N1621       N  0.69598981  0.71871238  0.42544563    -0.46100
C1622       C  0.60304994  0.60322095  0.62700016     0.24100
C1623       C  0.58874780  0.59532686  0.32910689    -0.24000
C1624       C  0.59689519  0.60930135  0.36470003     0.19000
C1625       C  0.61991022  0.63005054  0.36517854     0.24100
C1626       C  0.63532517  0.63737693  0.32981089    -0.23900
C1627       C  0.62601342  0.62403923  0.62719049     0.19000
F1628       F  0.63935810  0.63053841  0.59200111    -0.13900
F1629       F  0.59487967  0.59045135  0.59209526    -0.16200
F1630       F  0.62700381  0.64281786  0.40048305    -0.16200
F1631       F  0.58274921  0.60247741  0.39921425    -0.13900
C1632       C  0.93207780  0.61408373  0.36334106     0.24100
C1633       C  0.93448912  0.59580628  0.32970570    -0.24000
C1634       C  0.91568231  0.60078460  0.63019205     0.19000
C1635       C  0.89506727  0.62394125  0.63094990     0.24100
C1636       C  0.89299156  0.64277852  0.33120644    -0.23900
C1637       C  0.91156756  0.63729802  0.36420015     0.19000
F1638       F  0.91063311  0.65489074  0.39695161    -0.13900
F1639       F  0.94996746  0.60960030  0.39525389    -0.16200
F1640       F  0.87704701  0.62767822  0.59900190    -0.16200
F1641       F  0.91757736  0.58335496  0.59736454    -0.13900
C1642       C  0.61335511  0.89962279  0.69837500     0.24100
C1643       C  0.63150411  0.89403908  0.33175926    -0.24000
C1644       C  0.62885190  0.91298452  0.29844032     0.19000
C1645       C  0.60795464  0.93596827  0.29814550     0.24100
C1646       C  0.58914690  0.94051933  0.66401885    -0.23900
C1647       C  0.59234151  0.92244007  0.69774982     0.19000
F1648       F  0.57479904  0.92677390  0.73009722    -0.13900
F1649       F  0.61519075  0.88248144  0.73150446    -0.16200
F1650       F  0.60514140  0.95306086  0.59813496    -0.16200
F1651       F  0.64661698  0.90951105  0.26612779    -0.13900
C1652       C  0.90871096  0.89973185  0.35985580     0.24100
C1653       C  0.88803219  0.89837434  0.32846914    -0.24000
C1654       C  0.89125695  0.91814713  0.62948560     0.19000
C1655       C  0.91413019  0.93904829  0.62914143     0.24100
C1656       C  0.93411367  0.94084014  0.66107063    -0.23900
C1657       C  0.93137256  0.92090257  0.35956180     0.19000
F1658       F  0.95038519  0.92227051  0.39078978    -0.13900
F1659       F  0.90724813  0.88037005  0.39072490    -0.16200
F1660       F  0.91645954  0.95803880  0.59792328    -0.16200
F1661       F  0.87175287  0.91806772  0.59875042    -0.13900
C1662       C  0.86270578  0.87713247  0.66307427     0.80800
N1663       N  0.85020035  0.86741165  0.96197780    -0.77500
C1664       C  0.82626849  0.84929271  0.96285011     0.83200
N1665       N  0.81485076  0.84049159  0.99835204    -0.77500
C1666       C  0.82739139  0.84956774  0.69959282     0.83300
N1667       N  0.85142816  0.86768067  0.69858219    -0.79200
C1668       C  0.65258429  0.86847373  0.66463167     0.80800
N1669       N  0.66200669  0.85617447  0.69947192    -0.77500
C1670       C  0.67991360  0.83199682  0.69933673     0.83200
N1671       N  0.68876906  0.82007667  0.99753454    -0.77500
C1672       C  0.67998642  0.83242534  0.96260864     0.83300
N1673       N  0.66209425  0.85662897  0.96296700    -0.79200
C1674       C  0.87186273  0.66817652  0.66455961     0.80800
N1675       N  0.86210302  0.67993335  0.96307001    -0.77500
C1676       C  0.84367164  0.70365868  0.96306513     0.83200
N1677       N  0.83463979  0.71565516  0.66470749    -0.77500
C1678       C  0.84386235  0.70376092  0.69968024     0.83300
N1679       N  0.86230654  0.68003643  0.69955544    -0.79200
N1680       N  0.51163832  0.97226177  0.99838750    -0.36100
N1681       N  0.55750924  0.51800464  0.99551760    -0.56600
N1682       N  0.51151314  0.56387377  0.99772945    -0.36100
N1683       N  0.96570669  0.51817048  0.99370641    -0.56600
C1684       C  0.53592075  0.95521174  0.99236404     0.27500
C1685       C  0.98751134  0.95530830  0.99142081     0.27500
C1686       C  0.53571815  0.58087010  0.99145068     0.27500
C1687       C  0.98738961  0.58089379  0.99102679     0.27500
C1688       C  0.57513531  0.99396970  0.00014163     0.36100
C1689       C  0.57498434  0.54210813  0.99965697     0.36100
C1690       C  0.94816699  0.99418264  0.99833391     0.36100
C1691       C  0.94811854  0.54219607  0.99827586     0.36100
C1692       C  0.52702644  0.92689421  0.98195696    -0.21300
C1693       C  0.99659535  0.92696428  0.98133975    -0.21300
C1694       C  0.52684080  0.60923277  0.98114154    -0.21300
C1695       C  0.99639708  0.60924813  0.98087806    -0.21300
C1696       C  0.60411183  0.50300190  0.00637035    -0.22400
C1697       C  0.60399046  0.53336787  0.00613445    -0.22400
C1698       C  0.91927425  0.50303496  0.00546099    -0.22400
C1699       C  0.91922719  0.53338523  0.00530237    -0.22400
C1700       C  0.56591484  0.96406823  0.99689601    -0.17800
C1701       C  0.95745832  0.96427129  0.99493687    -0.17800
C1702       C  0.95743598  0.57204068  0.99511944    -0.17700
C1703       C  0.56561121  0.57194119  0.99595431    -0.17700
H1704       H  0.54102020  0.90809276  0.97533247     0.15200
H1705       H  0.98273725  0.90821570  0.97411044     0.15200
H1706       H  0.54082354  0.62803036  0.97452212     0.15200
H1707       H  0.98249429  0.62804649  0.97390817     0.15200
H1708       H  0.62329217  0.98904610  0.01101141     0.13400
H1709       H  0.62315155  0.54740026  0.01008922     0.13400
H1710       H  0.90015112  0.98919681  0.01062819     0.13400
H1711       H  0.90007783  0.54735175  0.00994177     0.13400
H1712       H  0.51148274  0.99386620  0.00846458     0.26700
H1713       H  0.51145293  0.54229516  0.00793462     0.26700
C1714       C  0.66118171  0.65816858  0.66404905     0.80800
N1715       N  0.67364942  0.66790895  0.96280513    -0.77000
C1716       C  0.69782919  0.68571951  0.96330709     0.83200
N1717       N  0.70966236  0.69418738  0.66526070    -0.77500
C1718       C  0.69724568  0.68511985  0.70003456     0.83300
N1719       N  0.67301001  0.66730168  0.69932280    -0.79200
C1720       C  0.83200513  0.71513201  0.92546129     0.43000
N1721       N  0.80385304  0.72043614  0.87475224     0.01900
C1722       C  0.78725916  0.84473901  0.75606283    -0.06000
H1723       H  0.76961766  0.86034964  0.91479707     0.07400
C1724       C  0.68506905  0.79235099  0.90623819    -0.06300
Co1725     Co  0.81550285  0.77717407  0.83129028     0.74200
N1726       N  0.78498668  0.82595702  0.87497367    -0.25500
Co1727     Co  0.75253097  0.82111276  0.83087935     0.74100
C1728       C  0.69144822  0.82082079  0.92477993     0.43100
N1729       N  0.71484529  0.72576156  0.87503150     0.01500
N1730       N  0.71995595  0.81503136  0.87430243     0.01600
N1731       N  0.82838446  0.81627407  0.75870166    -0.46400
H1732       H  0.85470458  0.75994164  0.91470054     0.07400
N1733       N  0.80911607  0.80945793  0.87470635     0.01900
N1734       N  0.72020273  0.81470045  0.78730146     0.01600
C1735       C  0.69168072  0.82027070  0.73690268     0.43200
N1736       N  0.73898509  0.70927595  0.87530307    -0.25000
C1737       C  0.83886806  0.74331460  0.75630276    -0.05900
N1738       N  0.81017891  0.70218616  0.90445727    -0.46100
N1739       N  0.71374020  0.83302161  0.75771694    -0.46300
C1740       C  0.83222375  0.71514136  0.73731556     0.43000
N1741       N  0.80965770  0.80964683  0.78781221     0.01900
N1742       N  0.73874866  0.70893988  0.78762876    -0.25000
N1743       N  0.82025094  0.74460121  0.87508736    -0.25500
N1744       N  0.71458704  0.72538636  0.78799525     0.01500
H1745       H  0.75365270  0.67388920  0.74855833     0.07400
H1746       H  0.66886306  0.77549457  0.74791805     0.07500
N1747       N  0.78548422  0.82606695  0.78718161    -0.25500
N1748       N  0.70357679  0.79084761  0.87490494    -0.25100
N1749       N  0.80384411  0.72049159  0.78781836     0.01900
C1750       C  0.81433857  0.83737348  0.92564215     0.43300
C1751       C  0.73777642  0.69093162  0.90679443    -0.06400
N1752       N  0.70366904  0.79059595  0.78716461    -0.25100
H1753       H  0.66895187  0.77580916  0.91462616     0.07400
N1754       N  0.82729866  0.81562309  0.90447748    -0.46400
H1755       H  0.75436134  0.67479557  0.91497818     0.07400
C1756       C  0.70865154  0.69642862  0.73805785     0.43100
C1757       C  0.83861277  0.74335325  0.90648581    -0.05900
Co1758     Co  0.77149297  0.71410848  0.83132522     0.73800
N1759       N  0.69663252  0.71947977  0.90482779    -0.46100
C1760       C  0.81591477  0.83846456  0.73775057     0.43400
N1761       N  0.81021445  0.70226361  0.75814025    -0.46100
Co1762     Co  0.70849747  0.75803595  0.83127825     0.73900
C1763       C  0.68511625  0.79198417  0.75592623    -0.06400
C1764       C  0.78619163  0.84422091  0.90652857    -0.06000
N1765       N  0.82036377  0.74459384  0.78758675    -0.25500
N1766       N  0.71343677  0.83352275  0.90367394    -0.46300
H1767       H  0.77081189  0.86096956  0.74772321     0.07400
C1768       C  0.73715949  0.69015151  0.75665378    -0.06400
Cl1769     Cl  0.76198756  0.76761142  0.83112098    -0.49400
C1770       C  0.70960173  0.69766506  0.92592863     0.43200
H1771       H  0.85504925  0.75986137  0.74816469     0.07400
N1772       N  0.69604960  0.71867543  0.75878420    -0.46100
C1773       C  0.60339820  0.60288065  0.96038970     0.24100
C1774       C  0.58875527  0.59532962  0.66251732    -0.24000
C1775       C  0.59703638  0.60914846  0.69816609     0.19000
C1776       C  0.62004524  0.62990821  0.69865004     0.24100
C1777       C  0.63533260  0.63738583  0.66323495    -0.23900
C1778       C  0.62637848  0.62368078  0.96057420     0.19000
F1779       F  0.64006187  0.62980326  0.92549707    -0.13900
F1780       F  0.59552080  0.58977580  0.92558746    -0.16200
F1781       F  0.62726031  0.64253060  0.73400505    -0.16200
F1782       F  0.58302706  0.60216217  0.73272307    -0.13900
C1783       C  0.93224684  0.61428527  0.69630217     0.24100
C1784       C  0.93451931  0.59588625  0.66276485    -0.24000
C1785       C  0.91643908  0.60127994  0.96315860     0.19000
C1786       C  0.89585263  0.62445591  0.96383721     0.24100
C1787       C  0.89292834  0.64278508  0.66437347    -0.23900
C1788       C  0.91169486  0.63746264  0.69720948     0.19000
F1789       F  0.91090316  0.65518240  0.72984248    -0.13900
F1790       F  0.95029435  0.60994252  0.72808699    -0.16200
F1791       F  0.87862569  0.62881186  0.93124526    -0.16200
F1792       F  0.91906619  0.58444687  0.92985842    -0.13900
C1793       C  0.61307708  0.89927515  0.03174190     0.24100
C1794       C  0.63150911  0.89405134  0.66488622    -0.24000
C1795       C  0.62849442  0.91266170  0.63126243     0.19000
C1796       C  0.60761832  0.93567190  0.63096323     0.24100
C1797       C  0.58907741  0.94041421  0.99763689    -0.23900
C1798       C  0.59204767  0.92208141  0.03116284     0.19000
F1799       F  0.57428539  0.92616401  0.06335236    -0.13900
F1800       F  0.61469835  0.88187291  0.06464616    -0.16200
F1801       F  0.60555874  0.95347328  0.93215011    -0.16200
F1802       F  0.64585809  0.90882549  0.59862975    -0.13900
C1803       C  0.90860682  0.89972115  0.69320976     0.24100
C1804       C  0.88796342  0.89836030  0.66178154    -0.24000
C1805       C  0.89127654  0.91811095  0.96280084     0.19000
C1806       C  0.91411351  0.93904936  0.96244416     0.24100
C1807       C  0.93411203  0.94086516  0.99435117    -0.23900
C1808       C  0.93128822  0.92087029  0.69294085     0.19000
F1809       F  0.95026099  0.92224188  0.72421160    -0.13900
F1810       F  0.90708641  0.88038670  0.72410437    -0.16200
F1811       F  0.91640473  0.95803866  0.93122037    -0.16200
F1812       F  0.87176104  0.91800412  0.93208000    -0.13900
loop_ 
_geom_bond_atom_site_label_1 
_geom_bond_atom_site_label_2 
_geom_bond_distance 
_geom_bond_site_symmetry_2 
_ccdc_geom_bond_type 
C1            N6   1.364   1_556  A
C1          N304   1.361       .  A
C1          C143   1.493       .  S
N2            C3   1.358       .  A
N2          C152   1.361       .  A
C3            N4   1.357       .  A
C3           C89   1.464       .  S
N4          C156   1.358       .  A
C5            N6   1.361       .  A
C5          N306   1.358   1_554  A
C5           C99   1.469       .  S
C7            N8   1.363   1_556  A
C7          N314   1.363       .  A
C7          C133   1.498       .  S
N8            C9   1.360       .  A
C9          N312   1.357   1_554  A
C9           C74   1.467       .  S
N10          C11   1.358       .  A
N10         C160   1.357       .  A
C11          N12   1.360       .  A
C11          C67   1.467       .  S
N12         C158   1.363       .  A
C13          N18   1.361   1_556  A
C13         N316   1.361       .  A
C13         C126   1.492       .  S
N14          C15   1.358       .  A
N14         C164   1.361       .  A
C15         N167   1.356       .  A
C15          C59   1.463       .  S
N16          C17   1.357   1_556  A
N16         C317   1.356       .  A
C17          N18   1.358       .  A
C17          C79   1.461       .  S
N19          C23   1.356       .  A
N19         C930   1.355   1_455  A
N19          H51   1.034       .  S
N20          C28   1.354       .  A
N20         C480   1.354   1_545  A
N21          C25   1.354       .  A
N21         C932   1.354   1_455  A
N21          H52   1.034       .  S
N22          C30   1.355       .  A
N22         C482   1.354   1_545  A
C23          C31   1.387       .  A
C23          C39   1.422       .  A
C24         N925   1.355       .  A
C24          C40   1.422       .  A
C24          C32   1.387       .  A
C25          C33   1.387       .  A
C25          C42   1.418       .  A
C26         N927   1.354       .  A
C26          C41   1.419       .  A
C26          C34   1.388       .  A
C27         N473   1.354       .  A
C27          C39   1.419       .  A
C27         C488   1.386       .  A
C28          C42   1.419       .  A
C28          C36   1.387       .  A
C29         N475   1.354       .  A
C29          C40   1.420       .  A
C29         C490   1.388       .  A
C30          C38   1.385       .  A
C30          C41   1.418       .  A
C31         C938   1.376   1_455  A
C31          H43   1.082       .  S
C32         C937   1.376       .  A
C32          H44   1.082       .  S
C33         C940   1.375   1_455  A
C33          H45   1.082       .  S
C34         C939   1.375       .  A
C34          H46   1.082       .  S
C35          C36   1.373       .  A
C35         C480   1.386   1_545  A
C35         H500   1.082   1_545  S
C36          H48   1.082       .  S
C37          C38   1.372       .  A
C37         C482   1.388   1_545  A
C37         H502   1.082   1_545  S
C38          H50   1.082       .  S
C39         C136   1.497       .  S
C40         C146   1.495       .  S
C41         C274   1.492       .  S
C42         C264   1.490       .  S
H47         C488   1.082       .  S
H49         C490   1.082       .  S
C53          N58   1.364   1_556  A
C53         N356   1.361       .  A
C53         C116   1.500       .  S
N54          C55   1.358       .  A
N54         C204   1.361       .  A
C55         N207   1.357       .  A
C55         C109   1.465       .  S
N56          C57   1.357   1_556  A
N56         C357   1.357       .  A
C57          N58   1.361       .  A
C57          C95   1.469       .  S
C59          N77   1.348       .  A
C59          C96   1.457       .  S
N60          N77   1.325       .  A
N60          N82   1.321       .  A
N60         Co97   2.086       .  S
C61          N86   1.345       .  A
C61          C99   1.461       .  S
C61         H106   1.081       .  S
H62         C103   1.081       .  S
C63          N87   1.344       .  A
C63          C67   1.459       .  S
C63          H92   1.081       .  S
Co64         N82   2.091       .  S
Co64         N72   2.083       .  S
Co64        N104   2.091       .  S
Co64         N80   2.086       .  S
Co64       Cl108   2.458       .  S
N65         C103   1.344       .  A
N65          N72   1.321       .  A
N65         Co66   2.096       .  S
Co66         N69   2.088       .  S
Co66         N86   2.101       .  S
Co66         N73   2.089       .  S
Co66       Cl108   2.456       .  S
C67         N105   1.348       .  A
N68          N75   1.321       .  A
N68          N98   1.325       .  A
N68        Co101   2.089       .  S
N69          N87   1.321       .  A
N69         N105   1.326       .  A
N70          C99   1.348       .  A
N70          N80   1.326       .  A
H71          C96   1.081       .  S
N72          N93   1.324       .  A
N73          N91   1.322       .  A
N73          N78   1.325       .  A
C74          N78   1.348       .  A
C74         C102   1.459       .  S
N75          C90   1.344       .  A
N75         Co97   2.093       .  S
C76         N104   1.343       .  A
C76          C79   1.456       .  S
C76         H110   1.081       .  S
C79         N100   1.347       .  A
N80          N86   1.321       .  A
N81         C107   1.345       .  A
N81          N83   1.321       .  A
N81         Co97   2.099       .  S
N82          C96   1.343       .  A
N83         N111   1.326       .  A
N83        Co101   2.090       .  S
H84         C107   1.081       .  S
H85         C102   1.081       .  S
N87        Co101   2.096       .  S
N88         N100   1.324       .  A
N88         N104   1.322       .  A
N88         Co97   2.085       .  S
C89          N93   1.347       .  A
C89         C103   1.458       .  S
C90         C109   1.458       .  S
C90          H94   1.081       .  S
N91         C102   1.345       .  A
N91        Co101   2.098       .  S
C95         N111   1.349       .  A
C95         C107   1.460       .  S
Co97       Cl108   2.457       .  S
N98         C109   1.348       .  A
Co101      Cl108   2.457       .  S
C112        C117   1.402       .  A
C112        C264   1.401       .  A
C112        F119   1.358       .  S
C113        C344   1.490       .  S
C113        C114   1.401   1_556  A
C113        C414   1.401       .  A
C114        C115   1.402       .  A
C114        F121   1.358       .  S
C115        C116   1.415   1_554  A
C115        F120   1.357       .  S
C116        C419   1.417       .  A
C117        C267   1.417       .  A
C117        F118   1.357       .  S
C122        C123   1.403   1_554  A
C122        C127   1.400       .  A
C122        F129   1.358       .  S
C123        C343   1.492       .  S
C123        C426   1.404       .  A
C124        C125   1.401       .  A
C124        C274   1.404       .  A
C124        F131   1.357       .  S
C125        C277   1.412       .  A
C125        F130   1.358       .  S
C126        C127   1.412   1_556  A
C126        C427   1.412       .  A
C127        F128   1.358       .  S
C132        C137   1.402       .  A
C132        C284   1.413       .  A
C132        F139   1.357       .  S
C133        C134   1.414       .  A
C133        C434   1.413   1_556  A
C134        C135   1.404       .  A
C134        F141   1.358       .  S
C135        C438   1.405       .  A
C135        F442   1.358       .  S
C136        C137   1.404       .  A
C136        C286   1.405       .  A
C137        F138   1.358       .  S
F140        C286   1.358       .  S
C142        C143   1.411   1_554  A
C142        C147   1.402       .  A
C142        F149   1.357       .  S
C143        C446   1.413       .  A
C144        C145   1.401       .  A
C144        C294   1.413       .  A
C144        F151   1.358       .  S
C145        C146   1.405       .  A
C145        F150   1.358       .  S
C146        C298   1.405       .  A
C147        C448   1.405   1_554  A
C147        F148   1.358       .  S
C152        N157   1.364       .  A
C152        C294   1.492       .  S
N153        C303   1.361       .  A
N153        C154   1.358       .  A
C154        N155   1.357       .  A
C154        C240   1.464       .  S
N155        C307   1.358       .  A
C156        N157   1.361       .  A
C156        C250   1.469       .  S
C158        N159   1.363       .  A
C158        C284   1.498       .  S
N159        C160   1.360       .  A
C160        C225   1.467       .  S
N161        C311   1.357       .  A
N161        C162   1.358       .  A
C162        N163   1.360       .  A
C162        C218   1.467       .  S
N163        C309   1.363       .  A
C164        N169   1.361       .  A
C164        C277   1.491       .  S
N165        C315   1.361       .  A
N165        C166   1.358       .  A
C166        N318   1.356       .  A
C166        C210   1.463       .  S
N167        C168   1.357       .  A
C168        N169   1.358       .  A
C168        C230   1.461       .  S
N170       C1081   1.355   1_455  A
N170        C174   1.356       .  A
N170        H202   1.034       .  S
N171        C631   1.354   1_545  A
N171        C179   1.354       .  A
N172       C1083   1.354   1_455  A
N172        C176   1.354       .  A
N172        H203   1.034       .  S
N173        C633   1.353   1_545  A
N173        C181   1.354       .  A
C174        C182   1.387       .  A
C174        C190   1.422       .  A
C175       N1076   1.355       .  A
C175        C191   1.422       .  A
C175        C183   1.387       .  A
C176        C184   1.387       .  A
C176        C193   1.418       .  A
C177       N1078   1.354       .  A
C177        C192   1.419       .  A
C177        C185   1.388       .  A
C178        N624   1.354       .  A
C178        C190   1.419       .  A
C178        C639   1.386       .  A
C179        C193   1.419       .  A
C179        C187   1.387       .  A
C180        N626   1.354       .  A
C180        C641   1.388       .  A
C180        C191   1.421       .  A
C181        C189   1.386       .  A
C181        C192   1.418       .  A
C182       C1089   1.376   1_455  A
C182        H194   1.082       .  S
C183       C1088   1.376       .  A
C183        H195   1.082       .  S
C184       C1091   1.375   1_455  A
C184        H196   1.082       .  S
C185       C1090   1.375       .  A
C185        H197   1.082       .  S
C186        C631   1.386   1_545  A
C186        C187   1.373       .  A
C186        H651   1.082   1_545  S
C187        H199   1.082       .  S
C188        C633   1.388   1_545  A
C188        C189   1.372       .  A
C188        H653   1.082   1_545  S
C189        H201   1.082       .  S
C190        C287   1.497       .  S
C191        C297   1.495       .  S
C192        C425   1.491       .  S
C193        C415   1.490       .  S
H198        C639   1.082       .  S
H200        C641   1.082       .  S
C204        N209   1.364       .  A
C204        C267   1.500       .  S
N205        C355   1.361       .  A
N205        C206   1.358       .  A
C206        N358   1.357       .  A
C206        C260   1.465       .  S
N207        C208   1.357       .  A
C208        N209   1.360       .  A
C208        C246   1.469       .  S
C210        N228   1.348       .  A
C210        C247   1.457       .  S
N211        N228   1.325       .  A
N211        N233   1.321       .  A
N211       Co248   2.086       .  S
C212        N237   1.345       .  A
C212        C250   1.461       .  S
C212        H257   1.081       .  S
H213        C254   1.081       .  S
C214        N238   1.344       .  A
C214        C218   1.459       .  S
C214        H243   1.081       .  S
Co215       N233   2.091       .  S
Co215       N223   2.083       .  S
Co215       N255   2.091       .  S
Co215       N231   2.086       .  S
Co215      Cl259   2.458       .  S
N216        C254   1.344       .  A
N216        N223   1.321       .  A
N216       Co217   2.097       .  S
Co217       N220   2.088       .  S
Co217       N237   2.101       .  S
Co217       N224   2.089       .  S
Co217      Cl259   2.456       .  S
C218        N256   1.348       .  A
N219        N226   1.321       .  A
N219        N249   1.325       .  A
N219       Co252   2.089       .  S
N220        N238   1.321       .  A
N220        N256   1.326       .  A
N221        C250   1.348       .  A
N221        N231   1.326       .  A
H222        C247   1.081       .  S
N223        N244   1.324       .  A
N224        N242   1.322       .  A
N224        N229   1.325       .  A
C225        N229   1.348       .  A
C225        C253   1.459       .  S
N226        C241   1.344       .  A
N226       Co248   2.092       .  S
C227        N255   1.343       .  A
C227        C230   1.456       .  S
C227        H261   1.081       .  S
C230        N251   1.347       .  A
N231        N237   1.321       .  A
N232        C258   1.345       .  A
N232        N234   1.321       .  A
N232       Co248   2.098       .  S
N233        C247   1.343       .  A
N234        N262   1.326       .  A
N234       Co252   2.090       .  S
H235        C258   1.081       .  S
H236        C253   1.081       .  S
N238       Co252   2.097       .  S
N239        N251   1.324       .  A
N239        N255   1.321       .  A
N239       Co248   2.085       .  S
C240        N244   1.347       .  A
C240        C254   1.459       .  S
C241        C260   1.458       .  S
C241        H245   1.081       .  S
N242        C253   1.345       .  A
N242       Co252   2.098       .  S
C246        N262   1.349       .  A
C246        C258   1.460       .  S
Co248      Cl259   2.457       .  S
N249        C260   1.348       .  A
Co252      Cl259   2.457       .  S
C263        C415   1.401       .  A
C263        C268   1.402       .  A
C263        F270   1.358       .  S
C264        C265   1.401       .  A
C265        C266   1.401       .  A
C265        F272   1.358       .  S
C266        C267   1.415       .  A
C266        F271   1.357       .  S
C268        C418   1.417       .  A
C268        F269   1.357       .  S
C273        C274   1.404       .  A
C273        C278   1.400       .  A
C273        F280   1.358       .  S
C275        C425   1.403       .  A
C275        C276   1.401       .  A
C275        F282   1.357       .  S
C276        C428   1.413       .  A
C276        F281   1.358       .  S
C277        C278   1.412       .  A
C278        F279   1.358       .  S
C283        C435   1.413       .  A
C283        C288   1.402       .  A
C283        F290   1.357       .  S
C284        C285   1.413       .  A
C285        C286   1.404       .  A
C285        F292   1.358       .  S
C287        C437   1.405       .  A
C287        C288   1.404       .  A
C288        F289   1.358       .  S
F291        C437   1.358       .  S
C293        C294   1.411       .  A
C293        C298   1.402       .  A
C293        F300   1.357       .  S
C295        C445   1.413       .  A
C295        C296   1.401       .  A
C295        F302   1.358       .  S
C296        C297   1.405       .  A
C296        F301   1.358       .  S
C297        C449   1.405       .  A
C298        F299   1.358       .  S
C303        N308   1.364       .  A
C303        C445   1.492       .  S
N304        C305   1.358       .  A
C305        N306   1.357       .  A
C305        C391   1.464       .  S
C307        N308   1.361       .  A
C307        C401   1.469       .  S
C309        N310   1.363       .  A
C309        C435   1.497       .  S
N310        C311   1.360       .  A
C311        C376   1.467       .  S
N312        C313   1.357       .  A
C313        N314   1.360       .  A
C313        C369   1.467       .  S
C315        N320   1.361       .  A
C315        C428   1.492       .  S
N316        C317   1.358       .  A
C317        C361   1.463       .  S
N318        C319   1.357       .  A
C319        N320   1.358       .  A
C319        C381   1.461       .  S
N321       C1232   1.355   1_455  A
N321        C325   1.356       .  A
N321        H353   1.034   1_556  S
N322        C782   1.354   1_546  A
N322        C330   1.354       .  A
N323       C1234   1.354   1_455  A
N323        C327   1.354       .  A
N323        H354   1.034   1_556  S
N324        C784   1.354   1_545  A
N324        C332   1.355       .  A
C325        C333   1.387       .  A
C325        C341   1.422       .  A
C326       N1227   1.355       .  A
C326        C342   1.422       .  A
C326        C334   1.387       .  A
C327        C335   1.387       .  A
C327        C344   1.418       .  A
C328       N1229   1.354       .  A
C328        C343   1.419       .  A
C328        C336   1.387       .  A
C329        N775   1.354       .  A
C329        C341   1.419       .  A
C329        C790   1.386   1_556  A
C330        C344   1.419       .  A
C330        C338   1.387   1_556  A
C331        N777   1.354       .  A
C331        C792   1.388   1_556  A
C331        C342   1.420       .  A
C332        C340   1.386   1_556  A
C332        C343   1.418       .  A
C333       C1240   1.376   1_455  A
C333        H345   1.082       .  S
C334       C1239   1.376       .  A
C334        H346   1.082       .  S
C335       C1242   1.375   1_455  A
C335        H347   1.082       .  S
C336       C1241   1.375       .  A
C336        H348   1.082       .  S
C337        C782   1.386   1_545  A
C337        C338   1.373       .  A
C337        H802   1.082   1_545  S
C338        H350   1.082       .  S
C339        C784   1.388   1_544  A
C339        C340   1.372       .  A
C339        H804   1.082   1_545  S
C340        H352   1.082       .  S
C341        C438   1.496       .  S
C342        C448   1.495       .  S
H349        C790   1.082       .  S
H351        C792   1.082       .  S
C355        N360   1.364       .  A
C355        C418   1.500       .  S
N356        C357   1.358       .  A
C357        C411   1.465       .  S
N358        C359   1.357       .  A
C359        N360   1.361       .  A
C359        C397   1.469       .  S
C361        N379   1.348       .  A
C361        C398   1.456       .  S
N362        N379   1.325       .  A
N362        N384   1.321       .  A
N362       Co399   2.086       .  S
C363        N388   1.345       .  A
C363        C401   1.461       .  S
C363        H408   1.081       .  S
H364        C405   1.081       .  S
C365        N389   1.344       .  A
C365        C369   1.459       .  S
C365        H394   1.081       .  S
Co366       N384   2.090       .  S
Co366       N374   2.083       .  S
Co366       N406   2.090       .  S
Co366       N382   2.086       .  S
Co366      Cl410   2.458       .  S
N367        C405   1.344       .  A
N367        N374   1.321       .  A
N367       Co368   2.097       .  S
Co368       N371   2.088       .  S
Co368       N388   2.101       .  S
Co368       N375   2.089       .  S
Co368      Cl410   2.456       .  S
C369        N407   1.348       .  A
N370        N377   1.321       .  A
N370        N400   1.325       .  A
N370       Co403   2.089       .  S
N371        N389   1.321       .  A
N371        N407   1.326       .  A
N372        C401   1.348       .  A
N372        N382   1.326       .  A
H373        C398   1.081       .  S
N374        N395   1.324       .  A
N375        N393   1.322       .  A
N375        N380   1.325       .  A
C376        N380   1.348       .  A
C376        C404   1.459       .  S
N377        C392   1.344       .  A
N377       Co399   2.092       .  S
C378        N406   1.343       .  A
C378        C381   1.456       .  S
C378        H412   1.081       .  S
C381        N402   1.347       .  A
N382        N388   1.321       .  A
N383        C409   1.345       .  A
N383        N385   1.321       .  A
N383       Co399   2.098       .  S
N384        C398   1.343       .  A
N385        N413   1.326       .  A
N385       Co403   2.089       .  S
H386        C409   1.081       .  S
H387        C404   1.081       .  S
N389       Co403   2.096       .  S
N390        N402   1.324       .  A
N390        N406   1.321       .  A
N390       Co399   2.085       .  S
C391        N395   1.347       .  A
C391        C405   1.459       .  S
C392        C411   1.458       .  S
C392        H396   1.081       .  S
N393        C404   1.345       .  A
N393       Co403   2.098       .  S
C397        N413   1.349       .  A
C397        C409   1.460       .  S
Co399      Cl410   2.457       .  S
N400        C411   1.348       .  A
Co403      Cl410   2.457       .  S
C414        C419   1.402       .  A
C414        F421   1.358       .  S
C415        C416   1.401       .  A
C416        C417   1.401       .  A
C416        F423   1.358       .  S
C417        C418   1.415       .  A
C417        F422   1.357       .  S
C419        F420   1.357       .  S
C424        C425   1.403       .  A
C424        C429   1.400       .  A
C424        F431   1.358       .  S
C426        C427   1.401       .  A
C426        F433   1.357       .  S
C427        F432   1.358       .  S
C428        C429   1.413       .  A
C429        F430   1.358       .  S
C434        C439   1.402       .  A
C434        F441   1.357       .  S
C435        C436   1.413       .  A
C436        C437   1.404       .  A
C436        F443   1.358       .  S
C438        C439   1.403   1_556  A
C439        F440   1.358       .  S
C444        C445   1.410       .  A
C444        C449   1.402       .  A
C444        F451   1.357       .  S
C446        C447   1.401       .  A
C446        F453   1.358       .  S
C447        C448   1.405       .  A
C447        F452   1.358       .  S
C449        F450   1.358       .  S
C454        N757   1.361       .  A
C454        N459   1.364   1_556  A
C454        C596   1.493       .  S
N455        C605   1.361       .  A
N455        C456   1.358       .  A
C456        N457   1.357       .  A
C456        C542   1.464       .  S
N457        C609   1.358       .  A
C458        N759   1.358   1_554  A
C458        N459   1.361       .  A
C458        C552   1.469       .  S
C460        N461   1.363   1_556  A
C460        N767   1.363       .  A
C460        C586   1.497       .  S
N461        C462   1.360       .  A
C462        N765   1.357   1_554  A
C462        C527   1.467       .  S
N463        C613   1.357       .  A
N463        C464   1.357       .  A
C464        N465   1.360       .  A
C464        C520   1.467       .  S
N465        C611   1.363       .  A
C466        N769   1.361       .  A
C466        N471   1.361   1_556  A
C466        C579   1.492       .  S
N467        C617   1.361       .  A
N467        C468   1.358       .  A
C468        N620   1.356       .  A
C468        C512   1.463       .  S
N469        C770   1.356       .  A
N469        C470   1.357   1_556  A
C470        N471   1.358       .  A
C470        C532   1.461       .  S
N472       C1383   1.355   1_455  A
N472        C476   1.356       .  A
N472        H504   1.034       .  S
N473        C481   1.354       .  A
N474       C1385   1.354   1_455  A
N474        C478   1.354       .  A
N474        H505   1.034       .  S
N475        C483   1.355       .  A
C476        C484   1.387       .  A
C476        C492   1.422       .  A
C477       N1378   1.355       .  A
C477        C493   1.422       .  A
C477        C485   1.387       .  A
C478        C486   1.387       .  A
C478        C495   1.418       .  A
C479       N1380   1.354       .  A
C479        C494   1.419       .  A
C479        C487   1.388       .  A
C480        C492   1.419       .  A
C481        C495   1.419       .  A
C481        C489   1.387       .  A
C482        C493   1.421       .  A
C483        C491   1.386       .  A
C483        C494   1.418       .  A
C484       C1391   1.376   1_455  A
C484        H496   1.082       .  S
C485       C1390   1.376       .  A
C485        H497   1.082       .  S
C486       C1393   1.375   1_455  A
C486        H498   1.082       .  S
C487       C1392   1.375       .  A
C487        H499   1.082       .  S
C488        C489   1.373       .  A
C489        H501   1.082       .  S
C490        C491   1.372       .  A
C491        H503   1.082       .  S
C492        C589   1.496       .  S
C493        C599   1.495       .  S
C494        C727   1.492       .  S
C495        C717   1.490       .  S
C506        N809   1.361       .  A
C506        N511   1.364   1_556  A
C506        C569   1.500       .  S
N507        C657   1.361       .  A
N507        C508   1.358       .  A
C508        N660   1.357       .  A
C508        C562   1.465       .  S
N509        C810   1.357       .  A
N509        C510   1.357   1_556  A
C510        N511   1.361       .  A
C510        C548   1.469       .  S
C512        N530   1.348       .  A
C512        C549   1.456       .  S
N513        N530   1.325       .  A
N513        N535   1.321       .  A
N513       Co550   2.086       .  S
C514        N539   1.345       .  A
C514        C552   1.461       .  S
C514        H559   1.081       .  S
H515        C556   1.081       .  S
C516        N540   1.344       .  A
C516        C520   1.459       .  S
C516        H545   1.081       .  S
Co517       N535   2.091       .  S
Co517       N525   2.083       .  S
Co517       N557   2.091       .  S
Co517       N533   2.086       .  S
Co517      Cl561   2.458       .  S
N518        C556   1.344       .  A
N518        N525   1.321       .  A
N518       Co519   2.096       .  S
Co519       N522   2.088       .  S
Co519       N539   2.101       .  S
Co519       N526   2.089       .  S
Co519      Cl561   2.456       .  S
C520        N558   1.348       .  A
N521        N528   1.321       .  A
N521        N551   1.325       .  A
N521       Co554   2.089       .  S
N522        N540   1.321       .  A
N522        N558   1.326       .  A
N523        C552   1.348       .  A
N523        N533   1.326       .  A
H524        C549   1.081       .  S
N525        N546   1.324       .  A
N526        N544   1.322       .  A
N526        N531   1.325       .  A
C527        N531   1.348       .  A
C527        C555   1.459       .  S
N528        C543   1.344       .  A
N528       Co550   2.092       .  S
C529        N557   1.343       .  A
C529        C532   1.456       .  S
C529        H563   1.081       .  S
C532        N553   1.347       .  A
N533        N539   1.321       .  A
N534        C560   1.345       .  A
N534        N536   1.321       .  A
N534       Co550   2.098       .  S
N535        C549   1.343       .  A
N536        N564   1.326       .  A
N536       Co554   2.089       .  S
H537        C560   1.081       .  S
H538        C555   1.081       .  S
N540       Co554   2.096       .  S
N541        N553   1.324       .  A
N541        N557   1.321       .  A
N541       Co550   2.085       .  S
C542        N546   1.347       .  A
C542        C556   1.458       .  S
C543        C562   1.458       .  S
C543        H547   1.081       .  S
N544        C555   1.345       .  A
N544       Co554   2.098       .  S
C548        N564   1.349       .  A
C548        C560   1.460       .  S
Co550      Cl561   2.457       .  S
N551        C562   1.348       .  A
Co554      Cl561   2.457       .  S
C565        C717   1.401       .  A
C565        C570   1.402       .  A
C565        F572   1.358       .  S
C566        C797   1.490       .  S
C566        C867   1.401       .  A
C566        C567   1.402   1_556  A
C567        C568   1.402       .  A
C567        F574   1.358       .  S
C568        C569   1.415   1_554  A
C568        F573   1.357       .  S
C569        C872   1.417       .  A
C570        C720   1.417       .  A
C570        F571   1.357       .  S
C575        C576   1.403   1_554  A
C575        C580   1.400       .  A
C575        F582   1.358       .  S
C576        C796   1.491       .  S
C576        C879   1.403       .  A
C577        C727   1.404       .  A
C577        C578   1.401       .  A
C577        F584   1.357       .  S
C578        C730   1.412       .  A
C578        F583   1.358       .  S
C579        C880   1.413       .  A
C579        C580   1.412   1_556  A
C580        F581   1.358       .  S
C585        C737   1.413       .  A
C585        C590   1.402       .  A
C585        F592   1.357       .  S
C586        C887   1.413   1_556  A
C586        C587   1.413       .  A
C587        C588   1.404       .  A
C587        F594   1.358       .  S
C588        C891   1.405       .  A
C588        F895   1.358       .  S
C589        C739   1.405       .  A
C589        C590   1.403       .  A
C590        F591   1.358       .  S
F593        C739   1.358       .  S
C595        C596   1.411   1_554  A
C595        C600   1.403       .  A
C595        F602   1.357       .  S
C596        C899   1.413       .  A
C597        C747   1.412       .  A
C597        C598   1.401       .  A
C597        F604   1.358       .  S
C598        C599   1.405       .  A
C598        F603   1.358       .  S
C599        C751   1.405       .  A
C600        C901   1.405   1_554  A
C600        F601   1.358       .  S
C605        N610   1.364       .  A
C605        C747   1.492       .  S
N606        C756   1.361       .  A
N606        C607   1.358       .  A
C607        N608   1.357       .  A
C607        C693   1.464       .  S
N608        C760   1.358       .  A
C609        N610   1.361       .  A
C609        C703   1.469       .  S
C611        N612   1.363       .  A
C611        C737   1.497       .  S
N612        C613   1.360       .  A
C613        C678   1.467       .  S
N614        C764   1.357       .  A
N614        C615   1.358       .  A
C615        N616   1.360       .  A
C615        C671   1.467       .  S
N616        C762   1.363       .  A
C617        N622   1.361       .  A
C617        C730   1.492       .  S
N618        C768   1.361       .  A
N618        C619   1.358       .  A
C619        N771   1.356       .  A
C619        C663   1.462       .  S
N620        C621   1.357       .  A
C621        N622   1.358       .  A
C621        C683   1.461       .  S
N623       C1534   1.355   1_455  A
N623        C627   1.356       .  A
N623        H655   1.034       .  S
N624        C632   1.354       .  A
N625       C1536   1.354   1_455  A
N625        C629   1.354       .  A
N625        H656   1.034       .  S
N626        C634   1.355       .  A
C627        C635   1.387       .  A
C627        C643   1.422       .  A
C628       N1529   1.355       .  A
C628        C644   1.422       .  A
C628        C636   1.387       .  A
C629        C637   1.387       .  A
C629        C646   1.418       .  A
C630       N1531   1.354       .  A
C630        C645   1.419       .  A
C630        C638   1.387       .  A
C631        C643   1.419       .  A
C632        C646   1.419       .  A
C632        C640   1.387       .  A
C633        C644   1.420       .  A
C634        C642   1.385       .  A
C634        C645   1.418       .  A
C635       C1542   1.376   1_455  A
C635        H647   1.082       .  S
C636       C1541   1.376       .  A
C636        H648   1.082       .  S
C637       C1544   1.375   1_455  A
C637        H649   1.082       .  S
C638       C1543   1.375       .  A
C638        H650   1.082       .  S
C639        C640   1.373       .  A
C640        H652   1.082       .  S
C641        C642   1.372       .  A
C642        H654   1.082       .  S
C643        C740   1.496       .  S
C644        C750   1.495       .  S
C645        C878   1.492       .  S
C646        C868   1.490       .  S
C657        N662   1.364       .  A
C657        C720   1.500       .  S
N658        C808   1.362       .  A
N658        C659   1.358       .  A
C659        N811   1.357       .  A
C659        C713   1.465       .  S
N660        C661   1.357       .  A
C661        N662   1.361       .  A
C661        C699   1.469       .  S
C663        N681   1.348       .  A
C663        C700   1.456       .  S
N664        N681   1.325       .  A
N664        N686   1.321       .  A
N664       Co701   2.086       .  S
C665        N690   1.345       .  A
C665        C703   1.461       .  S
C665        H710   1.081       .  S
H666        C707   1.081       .  S
C667        N691   1.344       .  A
C667        C671   1.459       .  S
C667        H696   1.081       .  S
Co668       N686   2.090       .  S
Co668       N676   2.083       .  S
Co668       N708   2.090       .  S
Co668       N684   2.086       .  S
Co668      Cl712   2.458       .  S
N669        C707   1.344       .  A
N669        N676   1.321       .  A
N669       Co670   2.096       .  S
Co670       N673   2.088       .  S
Co670       N690   2.101       .  S
Co670       N677   2.089       .  S
Co670      Cl712   2.456       .  S
C671        N709   1.348       .  A
N672        N679   1.321       .  A
N672        N702   1.325       .  A
N672       Co705   2.089       .  S
N673        N691   1.321       .  A
N673        N709   1.326       .  A
N674        C703   1.348       .  A
N674        N684   1.326       .  A
H675        C700   1.081       .  S
N676        N697   1.324       .  A
N677        N695   1.322       .  A
N677        N682   1.325       .  A
C678        N682   1.348       .  A
C678        C706   1.459       .  S
N679        C694   1.344       .  A
N679       Co701   2.093       .  S
C680        N708   1.343       .  A
C680        C683   1.456       .  S
C680        H714   1.081       .  S
C683        N704   1.347       .  A
N684        N690   1.321       .  A
N685        C711   1.345       .  A
N685        N687   1.321       .  A
N685       Co701   2.098       .  S
N686        C700   1.343       .  A
N687        N715   1.326       .  A
N687       Co705   2.089       .  S
H688        C711   1.081       .  S
H689        C706   1.081       .  S
N691       Co705   2.096       .  S
N692        N704   1.324       .  A
N692        N708   1.322       .  A
N692       Co701   2.085       .  S
C693        N697   1.347       .  A
C693        C707   1.458       .  S
C694        C713   1.458       .  S
C694        H698   1.081       .  S
N695        C706   1.345       .  A
N695       Co705   2.098       .  S
C699        N715   1.349       .  A
C699        C711   1.460       .  S
Co701      Cl712   2.456       .  S
N702        C713   1.348       .  A
Co705      Cl712   2.457       .  S
C716        C868   1.401       .  A
C716        C721   1.402       .  A
C716        F723   1.358       .  S
C717        C718   1.402       .  A
C718        C719   1.402       .  A
C718        F725   1.358       .  S
C719        C720   1.415       .  A
C719        F724   1.357       .  S
C721        C871   1.417       .  A
C721        F722   1.357       .  S
C726        C727   1.403       .  A
C726        C731   1.400       .  A
C726        F733   1.358       .  S
C728        C878   1.404       .  A
C728        C729   1.401       .  A
C728        F735   1.357       .  S
C729        C881   1.412       .  A
C729        F734   1.358       .  S
C730        C731   1.412       .  A
C731        F732   1.358       .  S
C736        C888   1.413       .  A
C736        C741   1.402       .  A
C736        F743   1.357       .  S
C737        C738   1.413       .  A
C738        C739   1.404       .  A
C738        F745   1.358       .  S
C740        C890   1.405       .  A
C740        C741   1.403       .  A
C741        F742   1.358       .  S
F744        C890   1.358       .  S
C746        C747   1.410       .  A
C746        C751   1.403       .  A
C746        F753   1.357       .  S
C748        C898   1.413       .  A
C748        C749   1.401       .  A
C748        F755   1.358       .  S
C749        C750   1.405       .  A
C749        F754   1.358       .  S
C750        C902   1.405       .  A
C751        F752   1.358       .  S
C756        N761   1.364       .  A
C756        C898   1.493       .  S
N757        C758   1.358       .  A
C758        N759   1.357       .  A
C758        C844   1.464       .  S
C760        N761   1.361       .  A
C760        C854   1.469       .  S
C762        N763   1.363       .  A
C762        C888   1.498       .  S
N763        C764   1.360       .  A
C764        C829   1.467       .  S
N765        C766   1.358       .  A
C766        N767   1.360       .  A
C766        C822   1.468       .  S
C768        N773   1.361       .  A
C768        C881   1.491       .  S
N769        C770   1.358       .  A
C770        C814   1.463       .  S
N771        C772   1.357       .  A
C772        N773   1.358       .  A
C772        C834   1.461       .  S
N774       C1685   1.355   1_455  A
N774        C778   1.356       .  A
N774        H806   1.034   1_556  S
N775        C783   1.354       .  A
N776       C1687   1.353   1_455  A
N776        C780   1.354       .  A
N776        H807   1.034   1_556  S
N777        C785   1.355       .  A
C778        C786   1.387       .  A
C778        C794   1.422       .  A
C779       N1680   1.355       .  A
C779        C795   1.422       .  A
C779        C787   1.387       .  A
C780        C788   1.387       .  A
C780        C797   1.418       .  A
C781       N1682   1.354       .  A
C781        C796   1.419       .  A
C781        C789   1.388       .  A
C782        C794   1.419   1_554  A
C783        C797   1.419       .  A
C783        C791   1.387   1_556  A
C784        C795   1.421       .  A
C785        C793   1.386   1_556  A
C785        C796   1.418       .  A
C786       C1693   1.376   1_455  A
C786        H798   1.082       .  S
C787       C1692   1.376       .  A
C787        H799   1.082       .  S
C788       C1695   1.375   1_455  A
C788        H800   1.082       .  S
C789       C1694   1.375       .  A
C789        H801   1.082       .  S
C790        C791   1.373       .  A
C791        H803   1.082       .  S
C792        C793   1.372       .  A
C793        H805   1.082       .  S
C794        C891   1.496       .  S
C795        C901   1.495       .  S
C808        N813   1.364       .  A
C808        C871   1.500       .  S
N809        C810   1.358       .  A
C810        C864   1.465       .  S
N811        C812   1.357       .  A
C812        N813   1.360       .  A
C812        C850   1.469       .  S
C814        N832   1.348       .  A
C814        C851   1.457       .  S
N815        N832   1.325       .  A
N815        N837   1.321       .  A
N815       Co852   2.086       .  S
C816        N841   1.345       .  A
C816        C854   1.461       .  S
C816        H861   1.081       .  S
H817        C858   1.081       .  S
C818        N842   1.344       .  A
C818        C822   1.459       .  S
C818        H847   1.081       .  S
Co819       N837   2.091       .  S
Co819       N827   2.083       .  S
Co819       N859   2.091       .  S
Co819       N835   2.086       .  S
Co819      Cl863   2.458       .  S
N820        C858   1.344       .  A
N820        N827   1.321       .  A
N820       Co821   2.097       .  S
Co821       N824   2.088       .  S
Co821       N841   2.101       .  S
Co821       N828   2.089       .  S
Co821      Cl863   2.456       .  S
C822        N860   1.348       .  A
N823        N830   1.321       .  A
N823        N853   1.325       .  A
N823       Co856   2.089       .  S
N824        N842   1.321       .  A
N824        N860   1.326       .  A
N825        C854   1.348       .  A
N825        N835   1.326       .  A
H826        C851   1.081       .  S
N827        N848   1.324       .  A
N828        N846   1.322       .  A
N828        N833   1.325       .  A
C829        N833   1.348       .  A
C829        C857   1.459       .  S
N830        C845   1.344       .  A
N830       Co852   2.092       .  S
C831        N859   1.343       .  A
C831        C834   1.456       .  S
C831        H865   1.081       .  S
C834        N855   1.347       .  A
N835        N841   1.321       .  A
N836        C862   1.345       .  A
N836        N838   1.321       .  A
N836       Co852   2.098       .  S
N837        C851   1.343       .  A
N838        N866   1.326       .  A
N838       Co856   2.090       .  S
H839        C862   1.081       .  S
H840        C857   1.081       .  S
N842       Co856   2.096       .  S
N843        N855   1.324       .  A
N843        N859   1.322       .  A
N843       Co852   2.085       .  S
C844        N848   1.347       .  A
C844        C858   1.459       .  S
C845        C864   1.458       .  S
C845        H849   1.081       .  S
N846        C857   1.345       .  A
N846       Co856   2.098       .  S
C850        N866   1.349       .  A
C850        C862   1.460       .  S
Co852      Cl863   2.457       .  S
N853        C864   1.348       .  A
Co856      Cl863   2.457       .  S
C867        C872   1.402       .  A
C867        F874   1.358       .  S
C868        C869   1.401       .  A
C869        C870   1.401       .  A
C869        F876   1.358       .  S
C870        C871   1.415       .  A
C870        F875   1.357       .  S
C872        F873   1.357       .  S
C877        C878   1.404       .  A
C877        C882   1.400       .  A
C877        F884   1.358       .  S
C879        C880   1.401       .  A
C879        F886   1.357       .  S
C880        F885   1.358       .  S
C881        C882   1.412       .  A
C882        F883   1.358       .  S
C887        C892   1.402       .  A
C887        F894   1.357       .  S
C888        C889   1.413       .  A
C889        C890   1.404       .  A
C889        F896   1.358       .  S
C891        C892   1.404   1_556  A
C892        F893   1.358       .  S
C897        C898   1.411       .  A
C897        C902   1.402       .  A
C897        F904   1.357       .  S
C899        C900   1.401       .  A
C899        F906   1.358       .  S
C900        C901   1.405       .  A
C900        F905   1.358       .  S
C902        F903   1.358       .  S
C907       N1210   1.361       .  A
C907        N912   1.364   1_556  A
C907       C1049   1.493       .  S
N908       C1058   1.361       .  A
N908        C909   1.358       .  A
C909        N910   1.357       .  A
C909        C995   1.464       .  S
N910       C1062   1.358       .  A
C911       N1212   1.358   1_554  A
C911        N912   1.361       .  A
C911       C1005   1.469       .  S
C913        N914   1.363   1_556  A
C913       N1220   1.363       .  A
C913       C1039   1.498       .  S
N914        C915   1.360       .  A
C915       N1218   1.357   1_554  A
C915        C980   1.467       .  S
N916       C1066   1.357       .  A
N916        C917   1.358       .  A
C917        N918   1.360       .  A
C917        C973   1.467       .  S
N918       C1064   1.363       .  A
C919       N1222   1.361       .  A
C919        N924   1.361   1_556  A
C919       C1032   1.492       .  S
N920       C1070   1.361       .  A
N920        C921   1.358       .  A
C921       N1073   1.356       .  A
C921        C965   1.463       .  S
N922       C1223   1.356       .  A
N922        C923   1.357   1_556  A
C923        N924   1.358       .  A
C923        C985   1.461       .  S
N925        C929   1.356       .  A
N925        H957   1.034       .  S
N926       C1386   1.354   1_545  A
N926        C934   1.354       .  A
N927        C931   1.354       .  A
N927        H958   1.034       .  S
N928       C1388   1.354   1_545  A
N928        C936   1.355       .  A
C929        C937   1.387       .  A
C929        C945   1.422       .  A
C930        C946   1.422       .  A
C930        C938   1.387       .  A
C931        C939   1.387       .  A
C931        C948   1.418       .  A
C932        C947   1.419       .  A
C932        C940   1.387       .  A
C933       N1379   1.354       .  A
C933        C945   1.419       .  A
C933       C1394   1.386       .  A
C934        C948   1.419       .  A
C934        C942   1.387       .  A
C935       N1381   1.354       .  A
C935       C1396   1.388       .  A
C935        C946   1.421       .  A
C936        C944   1.385       .  A
C936        C947   1.418       .  A
C937        H949   1.082       .  S
C938        H950   1.082       .  S
C939        H951   1.082       .  S
C940        H952   1.082       .  S
C941       C1386   1.386   1_545  A
C941        C942   1.373       .  A
C941       H1406   1.082   1_545  S
C942        H954   1.082       .  S
C943       C1388   1.388   1_545  A
C943        C944   1.372       .  A
C943       H1408   1.082   1_545  S
C944        H956   1.082       .  S
C945       C1042   1.496       .  S
C946       C1052   1.495       .  S
C947       C1180   1.492       .  S
C948       C1170   1.490       .  S
H953       C1394   1.082       .  S
H955       C1396   1.082       .  S
C959       N1262   1.361       .  A
C959        N964   1.364   1_556  A
C959       C1022   1.500       .  S
N960       C1110   1.361       .  A
N960        C961   1.358       .  A
C961       N1113   1.357       .  A
C961       C1015   1.465       .  S
N962       C1263   1.357       .  A
N962        C963   1.357   1_556  A
C963        N964   1.361       .  A
C963       C1001   1.469       .  S
C965        N983   1.348       .  A
C965       C1002   1.457       .  S
N966        N983   1.325       .  A
N966        N988   1.321       .  A
N966      Co1003   2.086       .  S
C967        N992   1.345       .  A
C967       C1005   1.461       .  S
C967       H1012   1.081       .  S
H968       C1009   1.081       .  S
C969        N993   1.344       .  A
C969        C973   1.459       .  S
C969        H998   1.081       .  S
Co970       N988   2.091       .  S
Co970       N978   2.083       .  S
Co970      N1010   2.091       .  S
Co970       N986   2.086       .  S
Co970     Cl1014   2.458       .  S
N971       C1009   1.344       .  A
N971        N978   1.321       .  A
N971       Co972   2.096       .  S
Co972       N975   2.088       .  S
Co972       N992   2.101       .  S
Co972       N979   2.089       .  S
Co972     Cl1014   2.456       .  S
C973       N1011   1.348       .  A
N974        N981   1.321       .  A
N974       N1004   1.325       .  A
N974      Co1007   2.089       .  S
N975        N993   1.321       .  A
N975       N1011   1.326       .  A
N976       C1005   1.348       .  A
N976        N986   1.326       .  A
H977       C1002   1.081       .  S
N978        N999   1.324       .  A
N979        N997   1.322       .  A
N979        N984   1.325       .  A
C980        N984   1.348       .  A
C980       C1008   1.459       .  S
N981        C996   1.344       .  A
N981      Co1003   2.093       .  S
C982       N1010   1.343       .  A
C982        C985   1.457       .  S
C982       H1016   1.081       .  S
C985       N1006   1.347       .  A
N986        N992   1.321       .  A
N987       C1013   1.345       .  A
N987        N989   1.321       .  A
N987      Co1003   2.098       .  S
N988       C1002   1.343       .  A
N989       N1017   1.326       .  A
N989      Co1007   2.090       .  S
H990       C1013   1.081       .  S
H991       C1008   1.081       .  S
N993      Co1007   2.096       .  S
N994       N1006   1.324       .  A
N994       N1010   1.322       .  A
N994      Co1003   2.085       .  S
C995        N999   1.347       .  A
C995       C1009   1.458       .  S
C996       C1015   1.458       .  S
C996       H1000   1.081       .  S
N997       C1008   1.345       .  A
N997      Co1007   2.098       .  S
C1001      N1017   1.349       .  A
C1001      C1013   1.460       .  S
Co1003    Cl1014   2.457       .  S
N1004      C1015   1.348       .  A
Co1007    Cl1014   2.457       .  S
C1018      C1170   1.401       .  A
C1018      C1023   1.402       .  A
C1018      F1025   1.358       .  S
C1019      C1250   1.490       .  S
C1019      C1320   1.401       .  A
C1019      C1020   1.401   1_556  A
C1020      C1021   1.402       .  A
C1020      F1027   1.358       .  S
C1021      C1022   1.415   1_554  A
C1021      F1026   1.357       .  S
C1022      C1325   1.417       .  A
C1023      C1173   1.417       .  A
C1023      F1024   1.357       .  S
C1028      C1029   1.403   1_554  A
C1028      C1033   1.400       .  A
C1028      F1035   1.358       .  S
C1029      C1249   1.492       .  S
C1029      C1332   1.404       .  A
C1030      C1180   1.404       .  A
C1030      C1031   1.401       .  A
C1030      F1037   1.357       .  S
C1031      C1183   1.412       .  A
C1031      F1036   1.358       .  S
C1032      C1333   1.412       .  A
C1032      C1033   1.412   1_556  A
C1033      F1034   1.358       .  S
C1038      C1190   1.413       .  A
C1038      C1043   1.402       .  A
C1038      F1045   1.357       .  S
C1039      C1340   1.413   1_556  A
C1039      C1040   1.414       .  A
C1040      C1041   1.404       .  A
C1040      F1047   1.358       .  S
C1041      C1344   1.405       .  A
C1041      F1348   1.358       .  S
C1042      C1192   1.405       .  A
C1042      C1043   1.403       .  A
C1043      F1044   1.358       .  S
F1046      C1192   1.358       .  S
C1048      C1049   1.411   1_554  A
C1048      C1053   1.402       .  A
C1048      F1055   1.357       .  S
C1049      C1352   1.413       .  A
C1050      C1200   1.412       .  A
C1050      C1051   1.401       .  A
C1050      F1057   1.358       .  S
C1051      C1052   1.405       .  A
C1051      F1056   1.358       .  S
C1052      C1204   1.405       .  A
C1053      C1354   1.405   1_554  A
C1053      F1054   1.358       .  S
C1058      N1063   1.364       .  A
C1058      C1200   1.492       .  S
N1059      C1209   1.361       .  A
N1059      C1060   1.358       .  A
C1060      N1061   1.357       .  A
C1060      C1146   1.464       .  S
N1061      C1213   1.358       .  A
C1062      N1063   1.361       .  A
C1062      C1156   1.469       .  S
C1064      N1065   1.363       .  A
C1064      C1190   1.498       .  S
N1065      C1066   1.360       .  A
C1066      C1131   1.467       .  S
N1067      C1217   1.357       .  A
N1067      C1068   1.358       .  A
C1068      N1069   1.360       .  A
C1068      C1124   1.468       .  S
N1069      C1215   1.363       .  A
C1070      N1075   1.361       .  A
C1070      C1183   1.491       .  S
N1071      C1221   1.361       .  A
N1071      C1072   1.358       .  A
C1072      N1224   1.356       .  A
C1072      C1116   1.463       .  S
N1073      C1074   1.357       .  A
C1074      N1075   1.358       .  A
C1074      C1136   1.461       .  S
N1076      C1080   1.356       .  A
N1076      H1108   1.034       .  S
N1077      C1537   1.354   1_545  A
N1077      C1085   1.354       .  A
N1078      C1082   1.354       .  A
N1078      H1109   1.034       .  S
N1079      C1539   1.354   1_545  A
N1079      C1087   1.355       .  A
C1080      C1088   1.387       .  A
C1080      C1096   1.422       .  A
C1081      C1097   1.422       .  A
C1081      C1089   1.387       .  A
C1082      C1090   1.387       .  A
C1082      C1099   1.418       .  A
C1083      C1098   1.419       .  A
C1083      C1091   1.388       .  A
C1084      N1530   1.354       .  A
C1084      C1096   1.419       .  A
C1084      C1545   1.386       .  A
C1085      C1099   1.419       .  A
C1085      C1093   1.387       .  A
C1086      N1532   1.354       .  A
C1086      C1547   1.387       .  A
C1086      C1097   1.420       .  A
C1087      C1095   1.386       .  A
C1087      C1098   1.418       .  A
C1088      H1100   1.082       .  S
C1089      H1101   1.082       .  S
C1090      H1102   1.082       .  S
C1091      H1103   1.082       .  S
C1092      C1537   1.386   1_545  A
C1092      C1093   1.373       .  A
C1092      H1557   1.082   1_545  S
C1093      H1105   1.082       .  S
C1094      C1539   1.388   1_545  A
C1094      C1095   1.372       .  A
C1094      H1559   1.082   1_545  S
C1095      H1107   1.082       .  S
C1096      C1193   1.497       .  S
C1097      C1203   1.495       .  S
C1098      C1331   1.491       .  S
C1099      C1321   1.490       .  S
H1104      C1545   1.082       .  S
H1106      C1547   1.082       .  S
C1110      N1115   1.364       .  A
C1110      C1173   1.500       .  S
N1111      C1261   1.361       .  A
N1111      C1112   1.358       .  A
C1112      N1264   1.357       .  A
C1112      C1166   1.464       .  S
N1113      C1114   1.357       .  A
C1114      N1115   1.360       .  A
C1114      C1152   1.469       .  S
C1116      N1134   1.348       .  A
C1116      C1153   1.457       .  S
N1117      N1134   1.325       .  A
N1117      N1139   1.321       .  A
N1117     Co1154   2.086       .  S
C1118      N1143   1.345       .  A
C1118      C1156   1.461       .  S
C1118      H1163   1.081       .  S
H1119      C1160   1.081       .  S
C1120      N1144   1.345       .  A
C1120      C1124   1.459       .  S
C1120      H1149   1.081       .  S
Co1121     N1139   2.091       .  S
Co1121     N1129   2.083       .  S
Co1121     N1161   2.091       .  S
Co1121     N1137   2.086       .  S
Co1121    Cl1165   2.458       .  S
N1122      C1160   1.344       .  A
N1122      N1129   1.321       .  A
N1122     Co1123   2.097       .  S
Co1123     N1126   2.088       .  S
Co1123     N1143   2.101       .  S
Co1123     N1130   2.089       .  S
Co1123    Cl1165   2.456       .  S
C1124      N1162   1.348       .  A
N1125      N1132   1.321       .  A
N1125      N1155   1.325       .  A
N1125     Co1158   2.089       .  S
N1126      N1144   1.321       .  A
N1126      N1162   1.326       .  A
N1127      C1156   1.348       .  A
N1127      N1137   1.326       .  A
H1128      C1153   1.081       .  S
N1129      N1150   1.324       .  A
N1130      N1148   1.322       .  A
N1130      N1135   1.325       .  A
C1131      N1135   1.348       .  A
C1131      C1159   1.459       .  S
N1132      C1147   1.344       .  A
N1132     Co1154   2.092       .  S
C1133      N1161   1.343       .  A
C1133      C1136   1.456       .  S
C1133      H1167   1.081       .  S
C1136      N1157   1.347       .  A
N1137      N1143   1.321       .  A
N1138      C1164   1.345       .  A
N1138      N1140   1.321       .  A
N1138     Co1154   2.098       .  S
N1139      C1153   1.343       .  A
N1140      N1168   1.326       .  A
N1140     Co1158   2.090       .  S
H1141      C1164   1.081       .  S
H1142      C1159   1.081       .  S
N1144     Co1158   2.097       .  S
N1145      N1157   1.324       .  A
N1145      N1161   1.321       .  A
N1145     Co1154   2.085       .  S
C1146      N1150   1.347       .  A
C1146      C1160   1.459       .  S
C1147      C1166   1.458       .  S
C1147      H1151   1.081       .  S
N1148      C1159   1.345       .  A
N1148     Co1158   2.098       .  S
C1152      N1168   1.349       .  A
C1152      C1164   1.460       .  S
Co1154    Cl1165   2.457       .  S
N1155      C1166   1.348       .  A
Co1158    Cl1165   2.457       .  S
C1169      C1321   1.401       .  A
C1169      C1174   1.402       .  A
C1169      F1176   1.358       .  S
C1170      C1171   1.401       .  A
C1171      C1172   1.401       .  A
C1171      F1178   1.358       .  S
C1172      C1173   1.415       .  A
C1172      F1177   1.357       .  S
C1174      C1324   1.417       .  A
C1174      F1175   1.357       .  S
C1179      C1180   1.403       .  A
C1179      C1184   1.400       .  A
C1179      F1186   1.358       .  S
C1181      C1331   1.403       .  A
C1181      C1182   1.401       .  A
C1181      F1188   1.357       .  S
C1182      C1334   1.412       .  A
C1182      F1187   1.358       .  S
C1183      C1184   1.412       .  A
C1184      F1185   1.358       .  S
C1189      C1341   1.413       .  A
C1189      C1194   1.402       .  A
C1189      F1196   1.357       .  S
C1190      C1191   1.414       .  A
C1191      C1192   1.404       .  A
C1191      F1198   1.358       .  S
C1193      C1343   1.405       .  A
C1193      C1194   1.404       .  A
C1194      F1195   1.358       .  S
F1197      C1343   1.358       .  S
C1199      C1200   1.411       .  A
C1199      C1204   1.403       .  A
C1199      F1206   1.357       .  S
C1201      C1351   1.412       .  A
C1201      C1202   1.401       .  A
C1201      F1208   1.358       .  S
C1202      C1203   1.405       .  A
C1202      F1207   1.358       .  S
C1203      C1355   1.405       .  A
C1204      F1205   1.358       .  S
C1209      N1214   1.364       .  A
C1209      C1351   1.492       .  S
N1210      C1211   1.358       .  A
C1211      N1212   1.357       .  A
C1211      C1297   1.464       .  S
C1213      N1214   1.362       .  A
C1213      C1307   1.469       .  S
C1215      N1216   1.363       .  A
C1215      C1341   1.497       .  S
N1216      C1217   1.360       .  A
C1217      C1282   1.467       .  S
N1218      C1219   1.357       .  A
C1219      N1220   1.360       .  A
C1219      C1275   1.467       .  S
C1221      N1226   1.361       .  A
C1221      C1334   1.491       .  S
N1222      C1223   1.358       .  A
C1223      C1267   1.463       .  S
N1224      C1225   1.357       .  A
C1225      N1226   1.358       .  A
C1225      C1287   1.461       .  S
N1227      C1231   1.356       .  A
N1227      H1259   1.034   1_556  S
N1228      C1688   1.354   1_546  A
N1228      C1236   1.354       .  A
N1229      C1233   1.354       .  A
N1229      H1260   1.034   1_556  S
N1230      C1690   1.354   1_545  A
N1230      C1238   1.355       .  A
C1231      C1239   1.387       .  A
C1231      C1247   1.422       .  A
C1232      C1248   1.422       .  A
C1232      C1240   1.387       .  A
C1233      C1241   1.387       .  A
C1233      C1250   1.418       .  A
C1234      C1249   1.419       .  A
C1234      C1242   1.388       .  A
C1235      N1681   1.354       .  A
C1235      C1247   1.419       .  A
C1235      C1696   1.386   1_556  A
C1236      C1250   1.419       .  A
C1236      C1244   1.387   1_556  A
C1237      N1683   1.354       .  A
C1237      C1698   1.388   1_556  A
C1237      C1248   1.421       .  A
C1238      C1246   1.386   1_556  A
C1238      C1249   1.418       .  A
C1239      H1251   1.082       .  S
C1240      H1252   1.082       .  S
C1241      H1253   1.082       .  S
C1242      H1254   1.082       .  S
C1243      C1688   1.386   1_545  A
C1243      C1244   1.373       .  A
C1243      H1708   1.082   1_545  S
C1244      H1256   1.082       .  S
C1245      C1690   1.388   1_544  A
C1245      C1246   1.372       .  A
C1245      H1710   1.082   1_545  S
C1246      H1258   1.082       .  S
C1247      C1344   1.496       .  S
C1248      C1354   1.495       .  S
H1255      C1696   1.082       .  S
H1257      C1698   1.082       .  S
C1261      N1266   1.364       .  A
C1261      C1324   1.500       .  S
N1262      C1263   1.358       .  A
C1263      C1317   1.465       .  S
N1264      C1265   1.357       .  A
C1265      N1266   1.361       .  A
C1265      C1303   1.469       .  S
C1267      N1285   1.348       .  A
C1267      C1304   1.456       .  S
N1268      N1285   1.325       .  A
N1268      N1290   1.321       .  A
N1268     Co1305   2.086       .  S
C1269      N1294   1.345       .  A
C1269      C1307   1.461       .  S
C1269      H1314   1.081       .  S
H1270      C1311   1.081       .  S
C1271      N1295   1.344       .  A
C1271      C1275   1.459       .  S
C1271      H1300   1.081       .  S
Co1272     N1290   2.090       .  S
Co1272     N1280   2.083       .  S
Co1272     N1312   2.090       .  S
Co1272     N1288   2.086       .  S
Co1272    Cl1316   2.458       .  S
N1273      C1311   1.344       .  A
N1273      N1280   1.321       .  A
N1273     Co1274   2.097       .  S
Co1274     N1277   2.089       .  S
Co1274     N1294   2.101       .  S
Co1274     N1281   2.089       .  S
Co1274    Cl1316   2.456       .  S
C1275      N1313   1.348       .  A
N1276      N1283   1.321       .  A
N1276      N1306   1.325       .  A
N1276     Co1309   2.089       .  S
N1277      N1295   1.321       .  A
N1277      N1313   1.326       .  A
N1278      C1307   1.348       .  A
N1278      N1288   1.326       .  A
H1279      C1304   1.081       .  S
N1280      N1301   1.324       .  A
N1281      N1299   1.322       .  A
N1281      N1286   1.325       .  A
C1282      N1286   1.348       .  A
C1282      C1310   1.459       .  S
N1283      C1298   1.344       .  A
N1283     Co1305   2.093       .  S
C1284      N1312   1.343       .  A
C1284      C1287   1.456       .  S
C1284      H1318   1.081       .  S
C1287      N1308   1.347       .  A
N1288      N1294   1.321       .  A
N1289      C1315   1.345       .  A
N1289      N1291   1.321       .  A
N1289     Co1305   2.098       .  S
N1290      C1304   1.343       .  A
N1291      N1319   1.326       .  A
N1291     Co1309   2.089       .  S
H1292      C1315   1.081       .  S
H1293      C1310   1.081       .  S
N1295     Co1309   2.096       .  S
N1296      N1308   1.324       .  A
N1296      N1312   1.321       .  A
N1296     Co1305   2.085       .  S
C1297      N1301   1.347       .  A
C1297      C1311   1.459       .  S
C1298      C1317   1.458       .  S
C1298      H1302   1.081       .  S
N1299      C1310   1.345       .  A
N1299     Co1309   2.098       .  S
C1303      N1319   1.349       .  A
C1303      C1315   1.460       .  S
Co1305    Cl1316   2.456       .  S
N1306      C1317   1.348       .  A
Co1309    Cl1316   2.457       .  S
C1320      C1325   1.402       .  A
C1320      F1327   1.358       .  S
C1321      C1322   1.401       .  A
C1322      C1323   1.401       .  A
C1322      F1329   1.358       .  S
C1323      C1324   1.415       .  A
C1323      F1328   1.357       .  S
C1325      F1326   1.357       .  S
C1330      C1331   1.403       .  A
C1330      C1335   1.400       .  A
C1330      F1337   1.358       .  S
C1332      C1333   1.401       .  A
C1332      F1339   1.357       .  S
C1333      F1338   1.358       .  S
C1334      C1335   1.412       .  A
C1335      F1336   1.358       .  S
C1340      C1345   1.402       .  A
C1340      F1347   1.357       .  S
C1341      C1342   1.413       .  A
C1342      C1343   1.404       .  A
C1342      F1349   1.358       .  S
C1344      C1345   1.403   1_556  A
C1345      F1346   1.358       .  S
C1350      C1351   1.410       .  A
C1350      C1355   1.403       .  A
C1350      F1357   1.357       .  S
C1352      C1353   1.401       .  A
C1352      F1359   1.358       .  S
C1353      C1354   1.405       .  A
C1353      F1358   1.358       .  S
C1355      F1356   1.358       .  S
C1360      N1663   1.361       .  A
C1360      N1365   1.364   1_556  A
C1360      C1502   1.493       .  S
N1361      C1511   1.361       .  A
N1361      C1362   1.358       .  A
C1362      N1363   1.357       .  A
C1362      C1448   1.464       .  S
N1363      C1515   1.358       .  A
C1364      N1665   1.358   1_554  A
C1364      N1365   1.361       .  A
C1364      C1458   1.469       .  S
C1366      N1367   1.363   1_556  A
C1366      N1673   1.363       .  A
C1366      C1492   1.498       .  S
N1367      C1368   1.360       .  A
C1368      N1671   1.357   1_554  A
C1368      C1433   1.467       .  S
N1369      C1519   1.357       .  A
N1369      C1370   1.357       .  A
C1370      N1371   1.360       .  A
C1370      C1426   1.467       .  S
N1371      C1517   1.363       .  A
C1372      N1675   1.361       .  A
C1372      N1377   1.361   1_556  A
C1372      C1485   1.492       .  S
N1373      C1523   1.361       .  A
N1373      C1374   1.358       .  A
C1374      N1526   1.356       .  A
C1374      C1418   1.463       .  S
N1375      C1676   1.356       .  A
N1375      C1376   1.357   1_556  A
C1376      N1377   1.358       .  A
C1376      C1438   1.461       .  S
N1378      C1382   1.356       .  A
N1378      H1410   1.034       .  S
N1379      C1387   1.354       .  A
N1380      C1384   1.354       .  A
N1380      H1411   1.034       .  S
N1381      C1389   1.355       .  A
C1382      C1390   1.387       .  A
C1382      C1398   1.422       .  A
C1383      C1399   1.422       .  A
C1383      C1391   1.388       .  A
C1384      C1392   1.387       .  A
C1384      C1401   1.418       .  A
C1385      C1400   1.419       .  A
C1385      C1393   1.388       .  A
C1386      C1398   1.419       .  A
C1387      C1401   1.419       .  A
C1387      C1395   1.387       .  A
C1388      C1399   1.421       .  A
C1389      C1397   1.386       .  A
C1389      C1400   1.418       .  A
C1390      H1402   1.082       .  S
C1391      H1403   1.082       .  S
C1392      H1404   1.082       .  S
C1393      H1405   1.082       .  S
C1394      C1395   1.373       .  A
C1395      H1407   1.082       .  S
C1396      C1397   1.372       .  A
C1397      H1409   1.082       .  S
C1398      C1495   1.496       .  S
C1399      C1505   1.495       .  S
C1400      C1633   1.492       .  S
C1401      C1623   1.490       .  S
C1412      N1715   1.361       .  A
C1412      N1417   1.364   1_556  A
C1412      C1475   1.500       .  S
N1413      C1563   1.361       .  A
N1413      C1414   1.358       .  A
C1414      N1566   1.357       .  A
C1414      C1468   1.465       .  S
N1415      C1716   1.357       .  A
N1415      C1416   1.357   1_556  A
C1416      N1417   1.361       .  A
C1416      C1454   1.469       .  S
C1418      N1436   1.348       .  A
C1418      C1455   1.456       .  S
N1419      N1436   1.325       .  A
N1419      N1441   1.321       .  A
N1419     Co1456   2.086       .  S
C1420      N1445   1.345       .  A
C1420      C1458   1.461       .  S
C1420      H1465   1.081       .  S
H1421      C1462   1.081       .  S
C1422      N1446   1.344       .  A
C1422      C1426   1.459       .  S
C1422      H1451   1.081       .  S
Co1423     N1441   2.090       .  S
Co1423     N1431   2.083       .  S
Co1423     N1463   2.091       .  S
Co1423     N1439   2.086       .  S
Co1423    Cl1467   2.458       .  S
N1424      C1462   1.344       .  A
N1424      N1431   1.321       .  A
N1424     Co1425   2.097       .  S
Co1425     N1428   2.088       .  S
Co1425     N1445   2.101       .  S
Co1425     N1432   2.089       .  S
Co1425    Cl1467   2.456       .  S
C1426      N1464   1.348       .  A
N1427      N1434   1.321       .  A
N1427      N1457   1.325       .  A
N1427     Co1460   2.089       .  S
N1428      N1446   1.321       .  A
N1428      N1464   1.326       .  A
N1429      C1458   1.348       .  A
N1429      N1439   1.326       .  A
H1430      C1455   1.081       .  S
N1431      N1452   1.324       .  A
N1432      N1450   1.322       .  A
N1432      N1437   1.325       .  A
C1433      N1437   1.348       .  A
C1433      C1461   1.459       .  S
N1434      C1449   1.344       .  A
N1434     Co1456   2.092       .  S
C1435      N1463   1.343       .  A
C1435      C1438   1.456       .  S
C1435      H1469   1.081       .  S
C1438      N1459   1.347       .  A
N1439      N1445   1.321       .  A
N1440      C1466   1.345       .  A
N1440      N1442   1.321       .  A
N1440     Co1456   2.098       .  S
N1441      C1455   1.343       .  A
N1442      N1470   1.326       .  A
N1442     Co1460   2.090       .  S
H1443      C1466   1.081       .  S
H1444      C1461   1.081       .  S
N1446     Co1460   2.096       .  S
N1447      N1459   1.324       .  A
N1447      N1463   1.321       .  A
N1447     Co1456   2.085       .  S
C1448      N1452   1.347       .  A
C1448      C1462   1.459       .  S
C1449      C1468   1.458       .  S
C1449      H1453   1.081       .  S
N1450      C1461   1.345       .  A
N1450     Co1460   2.098       .  S
C1454      N1470   1.349       .  A
C1454      C1466   1.460       .  S
Co1456    Cl1467   2.457       .  S
N1457      C1468   1.348       .  A
Co1460    Cl1467   2.457       .  S
C1471      C1623   1.401       .  A
C1471      C1476   1.402       .  A
C1471      F1478   1.358       .  S
C1472      C1703   1.490       .  S
C1472      C1773   1.401       .  A
C1472      C1473   1.401   1_556  A
C1473      C1474   1.402       .  A
C1473      F1480   1.358       .  S
C1474      C1475   1.415   1_554  A
C1474      F1479   1.357       .  S
C1475      C1778   1.417       .  A
C1476      C1626   1.417       .  A
C1476      F1477   1.357       .  S
C1481      C1482   1.403   1_554  A
C1481      C1486   1.400       .  A
C1481      F1488   1.358       .  S
C1482      C1702   1.491       .  S
C1482      C1785   1.403       .  A
C1483      C1633   1.404       .  A
C1483      C1484   1.401       .  A
C1483      F1490   1.357       .  S
C1484      C1636   1.412       .  A
C1484      F1489   1.358       .  S
C1485      C1786   1.413       .  A
C1485      C1486   1.413   1_556  A
C1486      F1487   1.358       .  S
C1491      C1643   1.413       .  A
C1491      C1496   1.402       .  A
C1491      F1498   1.357       .  S
C1492      C1793   1.413   1_556  A
C1492      C1493   1.413       .  A
C1493      C1494   1.404       .  A
C1493      F1500   1.358       .  S
C1494      C1797   1.405       .  A
C1494      F1801   1.358       .  S
C1495      C1645   1.405       .  A
C1495      C1496   1.404       .  A
C1496      F1497   1.358       .  S
F1499      C1645   1.358       .  S
C1501      C1502   1.411   1_554  A
C1501      C1506   1.403       .  A
C1501      F1508   1.357       .  S
C1502      C1805   1.413       .  A
C1503      C1653   1.413       .  A
C1503      C1504   1.401       .  A
C1503      F1510   1.358       .  S
C1504      C1505   1.405       .  A
C1504      F1509   1.358       .  S
C1505      C1657   1.405       .  A
C1506      C1807   1.405   1_554  A
C1506      F1507   1.358       .  S
C1511      N1516   1.364       .  A
C1511      C1653   1.492       .  S
N1512      C1662   1.361       .  A
N1512      C1513   1.358       .  A
C1513      N1514   1.357       .  A
C1513      C1599   1.464       .  S
N1514      C1666   1.358       .  A
C1515      N1516   1.361       .  A
C1515      C1609   1.469       .  S
C1517      N1518   1.363       .  A
C1517      C1643   1.497       .  S
N1518      C1519   1.360       .  A
C1519      C1584   1.467       .  S
N1520      C1670   1.357       .  A
N1520      C1521   1.358       .  A
C1521      N1522   1.360       .  A
C1521      C1577   1.467       .  S
N1522      C1668   1.363       .  A
C1523      N1528   1.361       .  A
C1523      C1636   1.491       .  S
N1524      C1674   1.361       .  A
N1524      C1525   1.358       .  A
C1525      N1677   1.356       .  A
C1525      C1569   1.462       .  S
N1526      C1527   1.357       .  A
C1527      N1528   1.358       .  A
C1527      C1589   1.461       .  S
N1529      C1533   1.356       .  A
N1529      H1561   1.034       .  S
N1530      C1538   1.354       .  A
N1531      C1535   1.354       .  A
N1531      H1562   1.034       .  S
N1532      C1540   1.355       .  A
C1533      C1541   1.387       .  A
C1533      C1549   1.422       .  A
C1534      C1550   1.422       .  A
C1534      C1542   1.387       .  A
C1535      C1543   1.387       .  A
C1535      C1552   1.418       .  A
C1536      C1551   1.419       .  A
C1536      C1544   1.387       .  A
C1537      C1549   1.419       .  A
C1538      C1552   1.419       .  A
C1538      C1546   1.387       .  A
C1539      C1550   1.420       .  A
C1540      C1548   1.385       .  A
C1540      C1551   1.418       .  A
C1541      H1553   1.082       .  S
C1542      H1554   1.082       .  S
C1543      H1555   1.082       .  S
C1544      H1556   1.082       .  S
C1545      C1546   1.373       .  A
C1546      H1558   1.082       .  S
C1547      C1548   1.372       .  A
C1548      H1560   1.082       .  S
C1549      C1646   1.496       .  S
C1550      C1656   1.495       .  S
C1551      C1784   1.492       .  S
C1552      C1774   1.490       .  S
C1563      N1568   1.364       .  A
C1563      C1626   1.500       .  S
N1564      C1714   1.361       .  A
N1564      C1565   1.358       .  A
C1565      N1717   1.357       .  A
C1565      C1619   1.465       .  S
N1566      C1567   1.357       .  A
C1567      N1568   1.361       .  A
C1567      C1605   1.469       .  S
C1569      N1587   1.348       .  A
C1569      C1606   1.456       .  S
N1570      N1587   1.325       .  A
N1570      N1592   1.321       .  A
N1570     Co1607   2.086       .  S
C1571      N1596   1.345       .  A
C1571      C1609   1.461       .  S
C1571      H1616   1.081       .  S
H1572      C1613   1.081       .  S
C1573      N1597   1.344       .  A
C1573      C1577   1.459       .  S
C1573      H1602   1.081       .  S
Co1574     N1592   2.090       .  S
Co1574     N1582   2.083       .  S
Co1574     N1614   2.090       .  S
Co1574     N1590   2.085       .  S
Co1574    Cl1618   2.458       .  S
N1575      C1613   1.344       .  A
N1575      N1582   1.321       .  A
N1575     Co1576   2.096       .  S
Co1576     N1579   2.088       .  S
Co1576     N1596   2.101       .  S
Co1576     N1583   2.089       .  S
Co1576    Cl1618   2.456       .  S
C1577      N1615   1.348       .  A
N1578      N1585   1.321       .  A
N1578      N1608   1.325       .  A
N1578     Co1611   2.089       .  S
N1579      N1597   1.321       .  A
N1579      N1615   1.326       .  A
N1580      C1609   1.348       .  A
N1580      N1590   1.326       .  A
H1581      C1606   1.081       .  S
N1582      N1603   1.324       .  A
N1583      N1601   1.322       .  A
N1583      N1588   1.325       .  A
C1584      N1588   1.348       .  A
C1584      C1612   1.459       .  S
N1585      C1600   1.344       .  A
N1585     Co1607   2.093       .  S
C1586      N1614   1.343       .  A
C1586      C1589   1.456       .  S
C1586      H1620   1.081       .  S
C1589      N1610   1.347       .  A
N1590      N1596   1.321       .  A
N1591      C1617   1.345       .  A
N1591      N1593   1.321       .  A
N1591     Co1607   2.098       .  S
N1592      C1606   1.343       .  A
N1593      N1621   1.326       .  A
N1593     Co1611   2.089       .  S
H1594      C1617   1.081       .  S
H1595      C1612   1.081       .  S
N1597     Co1611   2.096       .  S
N1598      N1610   1.324       .  A
N1598      N1614   1.322       .  A
N1598     Co1607   2.085       .  S
C1599      N1603   1.347       .  A
C1599      C1613   1.458       .  S
C1600      C1619   1.458       .  S
C1600      H1604   1.081       .  S
N1601      C1612   1.345       .  A
N1601     Co1611   2.098       .  S
C1605      N1621   1.349       .  A
C1605      C1617   1.460       .  S
Co1607    Cl1618   2.456       .  S
N1608      C1619   1.348       .  A
Co1611    Cl1618   2.457       .  S
C1622      C1774   1.401       .  A
C1622      C1627   1.402       .  A
C1622      F1629   1.358       .  S
C1623      C1624   1.401       .  A
C1624      C1625   1.401       .  A
C1624      F1631   1.358       .  S
C1625      C1626   1.415       .  A
C1625      F1630   1.357       .  S
C1627      C1777   1.417       .  A
C1627      F1628   1.357       .  S
C1632      C1633   1.403       .  A
C1632      C1637   1.400       .  A
C1632      F1639   1.358       .  S
C1634      C1784   1.404       .  A
C1634      C1635   1.401       .  A
C1634      F1641   1.357       .  S
C1635      C1787   1.412       .  A
C1635      F1640   1.358       .  S
C1636      C1637   1.412       .  A
C1637      F1638   1.358       .  S
C1642      C1794   1.413       .  A
C1642      C1647   1.402       .  A
C1642      F1649   1.357       .  S
C1643      C1644   1.413       .  A
C1644      C1645   1.404       .  A
C1644      F1651   1.358       .  S
C1646      C1796   1.405       .  A
C1646      C1647   1.403       .  A
C1647      F1648   1.358       .  S
F1650      C1796   1.358       .  S
C1652      C1653   1.411       .  A
C1652      C1657   1.402       .  A
C1652      F1659   1.357       .  S
C1654      C1804   1.413       .  A
C1654      C1655   1.401       .  A
C1654      F1661   1.358       .  S
C1655      C1656   1.405       .  A
C1655      F1660   1.358       .  S
C1656      C1808   1.405       .  A
C1657      F1658   1.358       .  S
C1662      N1667   1.364       .  A
C1662      C1804   1.493       .  S
N1663      C1664   1.358       .  A
C1664      N1665   1.357       .  A
C1664      C1750   1.464       .  S
C1666      N1667   1.361       .  A
C1666      C1760   1.469       .  S
C1668      N1669   1.363       .  A
C1668      C1794   1.498       .  S
N1669      C1670   1.360       .  A
C1670      C1735   1.468       .  S
N1671      C1672   1.358       .  A
C1672      N1673   1.360       .  A
C1672      C1728   1.468       .  S
C1674      N1679   1.361       .  A
C1674      C1787   1.491       .  S
N1675      C1676   1.358       .  A
C1676      C1720   1.463       .  S
N1677      C1678   1.357       .  A
C1678      N1679   1.358       .  A
C1678      C1740   1.461       .  S
N1680      C1684   1.356       .  A
N1680      H1712   1.034   1_556  S
N1681      C1689   1.354       .  A
N1682      C1686   1.354       .  A
N1682      H1713   1.034   1_556  S
N1683      C1691   1.354       .  A
C1684      C1692   1.387       .  A
C1684      C1700   1.422       .  A
C1685      C1701   1.422       .  A
C1685      C1693   1.387       .  A
C1686      C1694   1.387       .  A
C1686      C1703   1.418       .  A
C1687      C1702   1.419       .  A
C1687      C1695   1.387       .  A
C1688      C1700   1.419   1_554  A
C1689      C1703   1.419       .  A
C1689      C1697   1.387   1_556  A
C1690      C1701   1.421       .  A
C1691      C1699   1.385   1_556  A
C1691      C1702   1.418       .  A
C1692      H1704   1.082       .  S
C1693      H1705   1.082       .  S
C1694      H1706   1.082       .  S
C1695      H1707   1.082       .  S
C1696      C1697   1.373       .  A
C1697      H1709   1.082       .  S
C1698      C1699   1.372       .  A
C1699      H1711   1.082       .  S
C1700      C1797   1.496       .  S
C1701      C1807   1.495       .  S
C1714      N1719   1.364       .  A
C1714      C1777   1.500       .  S
N1715      C1716   1.358       .  A
C1716      C1770   1.465       .  S
N1717      C1718   1.357       .  A
C1718      N1719   1.361       .  A
C1718      C1756   1.469       .  S
C1720      N1738   1.348       .  A
C1720      C1757   1.457       .  S
N1721      N1738   1.325       .  A
N1721      N1743   1.321       .  A
N1721     Co1758   2.086       .  S
C1722      N1747   1.345       .  A
C1722      C1760   1.461       .  S
C1722      H1767   1.081       .  S
H1723      C1764   1.081       .  S
C1724      N1748   1.345       .  A
C1724      C1728   1.459       .  S
C1724      H1753   1.081       .  S
Co1725     N1743   2.091       .  S
Co1725     N1733   2.083       .  S
Co1725     N1765   2.091       .  S
Co1725     N1741   2.086       .  S
Co1725    Cl1769   2.458       .  S
N1726      C1764   1.344       .  A
N1726      N1733   1.321       .  A
N1726     Co1727   2.097       .  S
Co1727     N1730   2.088       .  S
Co1727     N1747   2.101       .  S
Co1727     N1734   2.089       .  S
Co1727    Cl1769   2.456       .  S
C1728      N1766   1.348       .  A
N1729      N1736   1.321       .  A
N1729      N1759   1.325       .  A
N1729     Co1762   2.089       .  S
N1730      N1748   1.321       .  A
N1730      N1766   1.326       .  A
N1731      C1760   1.348       .  A
N1731      N1741   1.326       .  A
H1732      C1757   1.081       .  S
N1733      N1754   1.324       .  A
N1734      N1752   1.322       .  A
N1734      N1739   1.325       .  A
C1735      N1739   1.348       .  A
C1735      C1763   1.460       .  S
N1736      C1751   1.344       .  A
N1736     Co1758   2.093       .  S
C1737      N1765   1.343       .  A
C1737      C1740   1.456       .  S
C1737      H1771   1.081       .  S
C1740      N1761   1.347       .  A
N1741      N1747   1.321       .  A
N1742      C1768   1.345       .  A
N1742      N1744   1.321       .  A
N1742     Co1758   2.098       .  S
N1743      C1757   1.343       .  A
N1744      N1772   1.326       .  A
N1744     Co1762   2.090       .  S
H1745      C1768   1.081       .  S
H1746      C1763   1.081       .  S
N1748     Co1762   2.097       .  S
N1749      N1761   1.324       .  A
N1749      N1765   1.321       .  A
N1749     Co1758   2.085       .  S
C1750      N1754   1.347       .  A
C1750      C1764   1.459       .  S
C1751      C1770   1.458       .  S
C1751      H1755   1.081       .  S
N1752      C1763   1.345       .  A
N1752     Co1762   2.099       .  S
C1756      N1772   1.349       .  A
C1756      C1768   1.460       .  S
Co1758    Cl1769   2.457       .  S
N1759      C1770   1.348       .  A
Co1762    Cl1769   2.457       .  S
C1773      C1778   1.402       .  A
C1773      F1780   1.358       .  S
C1774      C1775   1.401       .  A
C1775      C1776   1.402       .  A
C1775      F1782   1.358       .  S
C1776      C1777   1.415       .  A
C1776      F1781   1.357       .  S
C1778      F1779   1.357       .  S
C1783      C1784   1.404       .  A
C1783      C1788   1.400       .  A
C1783      F1790   1.358       .  S
C1785      C1786   1.401       .  A
C1785      F1792   1.357       .  S
C1786      F1791   1.358       .  S
C1787      C1788   1.412       .  A
C1788      F1789   1.358       .  S
C1793      C1798   1.402       .  A
C1793      F1800   1.357       .  S
C1794      C1795   1.414       .  A
C1795      C1796   1.404       .  A
C1795      F1802   1.358       .  S
C1797      C1798   1.403   1_556  A
C1798      F1799   1.358       .  S
C1803      C1804   1.411       .  A
C1803      C1808   1.402       .  A
C1803      F1810   1.357       .  S
C1805      C1806   1.401       .  A
C1805      F1812   1.358       .  S
C1806      C1807   1.405       .  A
C1806      F1811   1.358       .  S
C1808      F1809   1.358       .  S
