geometry optimzed in LAMMPS
_audit_creation_date              2020-11-30 
_audit_creation_method            'lammps2cif' 
_symmetry_space_group_name_H-M    'P1' 
_symmetry_Int_Tables_number       1 
_symmetry_cell_setting            triclinic 
loop_ 
_symmetry_equiv_pos_as_xyz 
  x,y,z 
_cell_length_a                    30.423141572237085 
_cell_length_b                    30.988403685328553 
_cell_length_c                    48.33671910368006 
_cell_angle_alpha                 90.34904203651571 
_cell_angle_beta                  88.88055478189993 
_cell_angle_gamma                 119.71023416821248 
loop_ 
_atom_site_label 
_atom_site_type_symbol 
_atom_site_fract_x 
_atom_site_fract_y 
_atom_site_fract_z 
_atom_site_charge 
O1          O  0.85086351  0.56785184  0.14023581    -0.80380
O2          O  0.76229204  0.65129831  0.23853222    -0.80400
O3          O  0.71910653  0.59481898  0.15257951    -0.80410
O4          O  0.91332437  0.71503674  0.18859411    -0.80350
O5          O  0.73694684  0.64510511  0.18692327    -0.80470
O6          O  0.89882506  0.66054908  0.15604107    -0.80390
O7          O  0.83064118  0.71269588  0.22014462    -0.80380
O8          O  0.79356011  0.58749540  0.13017174    -0.80420
C9          C  0.82323111  0.57291784  0.12202026     1.09310
C10         C  0.79010453  0.69709989  0.23468631     1.09200
C11         C  0.72121462  0.63270334  0.16287042     1.09330
C12         C  0.92551352  0.70295143  0.16572889     1.09210
O13         O  0.93096572  0.60795545  0.18524111    -0.80380
O14         O  0.67933137  0.56649352  0.22136014    -0.80460
O15         O  0.77657448  0.51037885  0.17001695    -0.80390
O16         O  0.82894682  0.63298333  0.25314667    -0.80370
O17         O  0.76477065  0.56303126  0.23938207    -0.80420
O18         O  0.83142542  0.54299258  0.20221594    -0.80390
O19         O  0.89844013  0.62834830  0.21970703    -0.80350
O20         O  0.71195887  0.52802504  0.19764858    -0.80420
Co21       Co  0.86456475  0.60262442  0.17921572     1.51530
Co22       Co  0.75016330  0.60125955  0.21081969     1.51690
Co23       Co  0.75525100  0.56071277  0.16455958     1.51570
Co24       Co  0.86370786  0.66952381  0.21774968     1.51470
O25         O  0.81150660  0.62029083  0.18821342    -1.42310
C26         C  0.93806892  0.63246183  0.20761667     1.09240
C27         C  0.67366597  0.52910040  0.20769526     1.09330
C28         C  0.79827471  0.50517888  0.19053956     1.09270
C29         C  0.79457159  0.58864102  0.25836741     1.09240
O30         O  0.81345515  0.71895212  0.41382679    -0.80380
O31         O  0.70796466  0.54323071  0.43498600    -0.80400
O32         O  0.85081752  0.60602707  0.38288892    -0.80410
O33         O  0.77776860  0.68602654  0.47629014    -0.80350
O34         O  0.77195392  0.55260259  0.39485441    -0.80470
O35         O  0.85161082  0.74563762  0.46168114    -0.80390
O36         O  0.71262797  0.59363152  0.46729170    -0.80380
O37         O  0.83400877  0.68536068  0.38171117    -0.80420
C38         C  0.81272136  0.71047061  0.38891356     1.09310
C39         C  0.68665081  0.55983267  0.45009319     1.09200
C40         C  0.80722863  0.57273739  0.37636983     1.09330
C41         C  0.81175411  0.73089985  0.47648200     1.09210
O42         O  0.91119399  0.70074211  0.45242638    -0.80380
O43         O  0.83553380  0.55105404  0.43699797    -0.80460
O44         O  0.93008716  0.70256782  0.39156559    -0.80390
O45         O  0.77125187  0.60868314  0.51058310    -0.80370
O46         O  0.78000035  0.55391959  0.48275569    -0.80420
O47         O  0.91908323  0.76177039  0.41176605    -0.80390
O48         O  0.86194626  0.67424248  0.48897463    -0.80350
O49         O  0.90219615  0.62505784  0.43169930    -0.80420
Co50       Co  0.86035467  0.70533568  0.43124559     1.51530
Co51       Co  0.77625894  0.55649013  0.43728887     1.51690
Co52       Co  0.86679468  0.65797139  0.41021073     1.51570
Co53       Co  0.78911632  0.62966954  0.47433582     1.51470
O54         O  0.80525971  0.63271795  0.43555577    -1.42310
C55         C  0.90589479  0.70188835  0.47807399     1.09240
C56         C  0.88195879  0.57850879  0.43752379     1.09330
C57         C  0.94494943  0.74862568  0.39582321     1.09270
C58         C  0.77837592  0.57162932  0.50774190     1.09240
O59         O  0.08703078  0.77934600  0.04300839    -0.80380
O60         O  0.31636492  0.94725578  0.02091355    -0.80400
O61         O  0.19938098  0.94547046  0.08172865    -0.80410
O62         O  0.23098447  0.80653764  0.49001960    -0.80350
O63         O  0.26371302  0.96831612  0.05553674    -0.80470
O64         O  0.16345195  0.81024872  0.50651474    -0.80390
O65         O  0.24348112  0.89714884  0.00366217    -0.80380
O66         O  0.12533829  0.86191422  0.04023500    -0.80420
C67         C  0.08525940  0.81794152  0.03635531     1.09310
C68         C  0.28270494  0.93887604  0.00354349     1.09200
C69         C  0.24369073  0.97822252  0.07506508     1.09330
C70         C  0.18809230  0.80289112  0.48652096     1.09210
O71         O  0.15613983  0.74764047  0.05245539    -0.80380
O72         O  0.28919905  0.92419317  0.10194517    -0.80460
O73         O  0.11641762  0.86355684  0.09450365    -0.80390
O74         O  0.31476373  0.86330441  0.02211583    -0.80370
O75         O  0.33463513  0.89478968  0.06392901    -0.80420
O76         O  0.13087313  0.80087619  0.09087209    -0.80390
O77         O  0.23634085  0.78073199  0.04175723    -0.80350
O78         O  0.20680868  0.87399716  0.10870083    -0.80420
Co79       Co  0.15629015  0.81225521  0.04978338     1.51530
Co80       Co  0.29740504  0.93052140  0.06087294     1.51690
Co81       Co  0.17357568  0.87290604  0.07377417     1.51570
Co82       Co  0.23947090  0.83877033  0.02350526     1.51470
O83         O  0.23080823  0.86445731  0.05693916    -1.42310
C84         C  0.19518421  0.74340837  0.04922981     1.09240
C85         C  0.25144903  0.89584484  0.11717674     1.09330
C86         C  0.10664958  0.82112511  0.10255042     1.09270
C87         C  0.34365890  0.87582840  0.04295367     1.09240
O88         O  0.15742453  0.76480083  0.27093811    -0.80380
O89         O  0.31521921  0.83685837  0.28965749    -0.80400
O90         O  0.21238845  0.88181815  0.24373792    -0.80410
O91         O  0.22626611  0.76098657  0.32192754    -0.80350
O92         O  0.26413295  0.85006970  0.24711491    -0.80470
O93         O  0.14163935  0.71720789  0.31987519    -0.80390
O94         O  0.31681784  0.85172543  0.33280809    -0.80380
O95         O  0.12642581  0.81476707  0.26910779    -0.80420
C96         C  0.12400079  0.77415225  0.26222779     1.09310
C97         C  0.33674478  0.84320463  0.31238003     1.09200
C98         C  0.23810854  0.86323799  0.23290383     1.09330
C99         C  0.18421138  0.71849887  0.32000589     1.09210
O100        O  0.17582130  0.79516798  0.35302935    -0.80380
O101        O  0.29272765  0.94519907  0.26600752    -0.80460
O102        O  0.15041507  0.87401012  0.31848487    -0.80390
O103        O  0.27111879  0.90450292  0.34602171    -0.80370
O104        O  0.33230985  0.93369576  0.31348814    -0.80420
O105        O  0.11425767  0.79215496  0.31841615    -0.80390
O106        O  0.24999852  0.81452170  0.37017523    -0.80350
O107        O  0.23413499  0.94776232  0.29117996    -0.80420
Co108      Co  0.17533567  0.78471492  0.31028627     1.51530
Co109      Co  0.29698384  0.88817680  0.28029634     1.51690
Co110      Co  0.18376652  0.87886397  0.28226079     1.51570
Co111      Co  0.24569509  0.83464108  0.33411338     1.51470
O112        O  0.22758014  0.85326883  0.29897260    -1.42310
C113        C  0.20370240  0.79964216  0.37366627     1.09240
C114        C  0.26904231  0.96733370  0.27332482     1.09330
C115        C  0.11587860  0.83198985  0.32693851     1.09270
C116        C  0.31322112  0.93953665  0.33626907     1.09240
O117        O  0.16873405  0.51628201  0.04577809    -0.80380
O118        O  0.30952570  0.42978880  0.06315160    -0.80400
O119        O  0.31341828  0.57226320  0.09328409    -0.80410
O120        O  0.22881790  0.42063221  0.51672656    -0.80350
O121        O  0.34889049  0.52880482  0.07696071    -0.80470
O122        O  0.22431556  0.48693877  0.01248765    -0.80390
O123        O  0.24737195  0.39967853  0.03293854    -0.80380
O124        O  0.24467816  0.56579578  0.05820859    -0.80420
C125        C  0.20424030  0.56060423  0.04920024     1.09310
C126        C  0.29062933  0.40644600  0.04119862     1.09200
C127        C  0.35123452  0.57000503  0.08283363     1.09330
C128        C  0.23612849  0.45717267  0.50149736     1.09210
O129        O  0.12457671  0.42012894  0.02324750    -0.80380
O130        O  0.30036631  0.50175193  0.12738183    -0.80460
O131        O  0.16108055  0.49991796  0.09734833    -0.80390
O132        O  0.20250226  0.35897579  0.07416920    -0.80370
O133        O  0.23591905  0.40779510  0.10905828    -0.80420
O134        O  0.13519064  0.42658288  0.07954006    -0.80390
O135        O  0.13565879  0.35686852  0.03338293    -0.80350
O136        O  0.22886280  0.49972735  0.12873813    -0.80420
Co137      Co  0.18218906  0.45749242  0.04666792     1.51530
Co138      Co  0.29387547  0.46657493  0.09214750     1.51690
Co139      Co  0.23751693  0.53136987  0.09294862     1.51570
Co140      Co  0.19290082  0.41037804  0.05396733     1.51470
O141        O  0.24309641  0.47850280  0.07107770    -1.42310
C142        C  0.11222527  0.37462953  0.01985204     1.09240
C143        C  0.26484118  0.50085066  0.14113748     1.09330
C144        C  0.12821264  0.45411460  0.09645091     1.09270
C145        C  0.22104485  0.36630910  0.09807713     1.09240
O146        O  0.15272277  0.49437446  0.29828451    -0.80380
O147        O  0.32821153  0.45992701  0.28739614    -0.80400
O148        O  0.28315129  0.52939750  0.35979315    -0.80410
O149        O  0.21491248  0.41054637  0.26053895    -0.80350
O150        O  0.32307024  0.52617140  0.32246403    -0.80470
O151        O  0.23156284  0.48626595  0.27407762    -0.80390
O152        O  0.27610492  0.38096049  0.28309052    -0.80380
O153        O  0.21915804  0.52935766  0.32444259    -0.80420
C154        C  0.18416536  0.53197774  0.31143900     1.09310
C155        C  0.31501411  0.41965640  0.27488326     1.09200
C156        C  0.32238157  0.54914660  0.34382885     1.09330
C157        C  0.23057285  0.45676800  0.25566091     1.09210
O158        O  0.13557162  0.40478113  0.28075216    -0.80380
O159        O  0.29830139  0.45830413  0.36910459    -0.80460
O160        O  0.17232159  0.48178927  0.37249881    -0.80390
O161        O  0.21264700  0.33733273  0.32916121    -0.80370
O162        O  0.29579215  0.38796134  0.33354196    -0.80420
O163        O  0.13682778  0.42725869  0.33860879    -0.80390
O164        O  0.13795379  0.34740062  0.30383637    -0.80350
O165        O  0.21592681  0.42330272  0.37347037    -0.80420
Co166      Co  0.18716287  0.45818897  0.30585543     1.51530
Co167      Co  0.30771722  0.45760802  0.32725646     1.51690
Co168      Co  0.21540084  0.47077698  0.34710336     1.51570
Co169      Co  0.21045971  0.37255186  0.29591796     1.51470
O170        O  0.23521534  0.43590867  0.31785988    -1.42310
C171        C  0.11741296  0.35896068  0.28534469     1.09240
C172        C  0.25843996  0.43898239  0.38429740     1.09330
C173        C  0.13303826  0.44487450  0.36232697     1.09270
C174        C  0.25562709  0.34580710  0.33731854     1.09240
O175        O  0.51121143  0.33070347  0.15360875    -0.80380
O176        O  0.40248028  0.15275613  0.16013125    -0.80400
O177        O  0.52782978  0.28383110  0.20887663    -0.80410
O178        O  0.35950473  0.21272351  0.13183696    -0.80350
O179        O  0.50257854  0.22400159  0.17728946    -0.80470
O180        O  0.43999545  0.26382571  0.12449759    -0.80390
O181        O  0.33859703  0.16701920  0.15416244    -0.80380
O182        O  0.51156395  0.35953707  0.19433645    -0.80420
C183        C  0.53316677  0.36226983  0.17167026     1.09310
C184        C  0.35883844  0.13976977  0.15053898     1.09200
C185        C  0.53801133  0.25771443  0.19133002     1.09330
C186        C  0.39891565  0.23014758  0.11575106     1.09210
O187        O  0.36532712  0.29010855  0.14666842    -0.80380
O188        O  0.46680008  0.21208491  0.23431416    -0.80460
O189        O  0.41551377  0.31801272  0.21915236    -0.80390
O190        O  0.31184641  0.15989428  0.19166053    -0.80370
O191        O  0.37353158  0.16756447  0.21649855    -0.80420
O192        O  0.43496507  0.35710364  0.17909602    -0.80390
O193        O  0.29328969  0.22643775  0.16189051    -0.80350
O194        O  0.42503436  0.24894516  0.24117941    -0.80420
Co195      Co  0.43864290  0.30624665  0.15309134     1.51530
Co196      Co  0.43571527  0.19305286  0.19484368     1.51690
Co197      Co  0.46697240  0.29880397  0.21430899     1.51570
Co198      Co  0.35415592  0.22939221  0.17425589     1.51470
O199        O  0.42667624  0.25276062  0.18319892    -1.42310
C200        C  0.31658579  0.26685431  0.14819531     1.09240
C201        C  0.44771307  0.22954793  0.25144891     1.09330
C202        C  0.41415521  0.34907465  0.20314688     1.09270
C203        C  0.32957555  0.14185375  0.20886061     1.09240
O204        O  0.46009517  0.37903621  0.41714006    -0.80380
O205        O  0.43029030  0.15912030  0.40861055    -0.80400
O206        O  0.52969081  0.28874417  0.44058821    -0.80410
O207        O  0.45019844  0.24994394  0.38138766    -0.80350
O208        O  0.48772300  0.21242354  0.45615100    -0.80470
O209        O  0.41860001  0.29957092  0.37565755    -0.80390
O210        O  0.37394986  0.15544838  0.38116899    -0.80380
O211        O  0.51782795  0.36073663  0.42610980    -0.80420
C212        C  0.50564383  0.39312542  0.42266021     1.09310
C213        C  0.39766051  0.13543805  0.38914504     1.09200
C214        C  0.52888480  0.24982642  0.44777924     1.09330
C215        C  0.44140641  0.27684322  0.36587258     1.09210
O216        O  0.33231959  0.24955812  0.41801283    -0.80380
O217        O  0.39512574  0.21028462  0.48003895    -0.80460
O218        O  0.45124173  0.34711424  0.47518534    -0.80390
O219        O  0.34061810  0.14941546  0.43393044    -0.80370
O220        O  0.39285099  0.13199426  0.45679498    -0.80420
O221        O  0.37943857  0.32106292  0.45282765    -0.80390
O222        O  0.34398698  0.21138367  0.38534282    -0.80350
O223        O  0.46910761  0.27136880  0.49095943    -0.80420
Co224      Co  0.39968115  0.30854702  0.41637931     1.51530
Co225      Co  0.41734240  0.19595315  0.44402044     1.51690
Co226      Co  0.48808001  0.31355715  0.45663099     1.51570
Co227      Co  0.39670632  0.20610510  0.40712112     1.51470
O228        O  0.42861125  0.26522848  0.43260138    -1.42310
C229        C  0.31869770  0.22960682  0.39521253     1.09240
C230        C  0.42557919  0.23690333  0.99819654     1.09330
C231        C  0.40782043  0.34386505  0.47270645     1.09270
C232        C  0.34868110  0.11852994  0.44874571     1.09240
O233        O  0.63604276  0.72783784  0.07276980    -0.80380
O234        O  0.54479993  0.85838699  0.07197337    -0.80400
O235        O  0.67730555  0.86060649  0.12436319    -0.80410
O236        O  0.54291062  0.78367325  0.05157575    -0.80350
O237        O  0.59742027  0.84193734  0.11977052    -0.80470
O238        O  0.57454349  0.76358026  0.08600297    -0.80390
O239        O  0.54946002  0.86307808  0.02573187    -0.80380
O240        O  0.69315505  0.79441556  0.09553600    -0.80420
C241        C  0.66882775  0.74686061  0.09158230     1.09310
C242        C  0.52716776  0.86297895  0.04841431     1.09200
C243        C  0.63329947  0.84552913  0.13473571     1.09330
C244        C  0.53717040  0.75609027  0.07215831     1.09210
O245        O  0.60196909  0.75784275  0.02696277    -0.80380
O246        O  0.67856612  0.93748804  0.10950200    -0.80460
O247        O  0.75554782  0.87366001  0.05598040    -0.80390
O248        O  0.65144522  0.91671973  0.02605370    -0.80370
O249        O  0.63835455  0.94972577  0.06258852    -0.80420
O250        O  0.69562966  0.80413481  0.03966095    -0.80390
O251        O  0.61436667  0.82679169  0.00716383    -0.80350
O252        O  0.73943159  0.93907918  0.08423325    -0.80420
Co253      Co  0.63606752  0.78699329  0.06386601     1.51530
Co254      Co  0.61682880  0.89167553  0.08896236     1.51690
Co255      Co  0.71190029  0.86735193  0.08795702     1.51570
Co256      Co  0.60025644  0.85299024  0.04064818     1.51470
O257        O  0.64927049  0.85494933  0.06532727    -1.42310
C258        C  0.60878782  0.78390368  0.50521257     1.09240
C259        C  0.72351371  0.96006994  0.10043427     1.09330
C260        C  0.74170646  0.83692328  0.04048641     1.09270
C261        C  0.65700083  0.95452199  0.03841909     1.09240
O262        O  0.67961534  0.77823839  0.33753335    -0.80380
O263        O  0.66927846  0.93506148  0.32458873    -0.80400
O264        O  0.73157865  0.93643625  0.28189389    -0.80410
O265        O  0.63228170  0.81846367  0.38295463    -0.80350
O266        O  0.65756846  0.93038492  0.27081714    -0.80470
O267        O  0.59276631  0.74198245  0.36953609    -0.80390
O268        O  0.64904711  0.90849890  0.36770436    -0.80380
O269        O  0.73540448  0.85668663  0.32424294    -0.80420
C270        C  0.72448706  0.81461611  0.33587403     1.09310
C271        C  0.67511981  0.94276832  0.35039495     1.09200
C272        C  0.70584213  0.95174541  0.26733638     1.09330
C273        C  0.61261634  0.77326271  0.38876865     1.09210
O274        O  0.53837261  0.73475737  0.32141384    -0.80380
O275        O  0.59125683  0.82770689  0.27020105    -0.80460
O276        O  0.69834290  0.82669809  0.28403185    -0.80390
O277        O  0.54709385  0.86172926  0.34599598    -0.80370
O278        O  0.56862228  0.88360437  0.30243729    -0.80420
O279        O  0.62705848  0.75513867  0.28892783    -0.80390
O280        O  0.52839326  0.76942711  0.36012637    -0.80350
O281        O  0.66983791  0.85130949  0.26638918    -0.80420
Co282      Co  0.60958308  0.75680711  0.32837393     1.51530
Co283      Co  0.62953590  0.87784824  0.29873636     1.51690
Co284      Co  0.68576644  0.87630197  0.30643842     1.51570
Co285      Co  0.59161436  0.83936971  0.36212464     1.51470
O286        O  0.62044828  0.82703637  0.32682324    -1.42310
C287        C  0.51080720  0.73497008  0.34161415     1.09240
C288        C  0.62687301  0.83238807  0.25485241     1.09330
C289        C  0.67329454  0.77907481  0.28114086     1.09270
C290        C  0.53869183  0.87408238  0.32266881     1.09240
O291        O  0.81415562  0.30445318  0.21367861    -0.80380
O292        O  0.72541303  0.12028468  0.17575152    -0.80400
O293        O  0.75879746  0.27235931  0.15760112    -0.80410
O294        O  0.83791314  0.23333382  0.24306534    -0.80350
O295        O  0.73203887  0.21402714  0.18931437    -0.80470
O296        O  0.88500759  0.31560155  0.24860842    -0.80390
O297        O  0.76569487  0.16058563  0.21120312    -0.80380
O298        O  0.84602609  0.35116011  0.17808443    -0.80420
C299        C  0.82004762  0.34085029  0.19987477     1.09310
C300        C  0.73929648  0.11851451  0.20016852     1.09200
C301        C  0.72513311  0.24492438  0.17574495     1.09330
C302        C  0.85151247  0.27256015  0.25781745     1.09210
O303        O  0.93835358  0.29377131  0.21239946    -0.80380
O304        O  0.75206442  0.19615109  0.13271922    -0.80460
O305        O  0.90875807  0.32693960  0.14668538    -0.80390
O306        O  0.83875749  0.14343558  0.18212905    -0.80370
O307        O  0.82043046  0.17577282  0.14853222    -0.80420
O308        O  0.92757143  0.35707153  0.18924385    -0.80390
O309        O  0.91221483  0.21519431  0.21370485    -0.80350
O310        O  0.82765149  0.25450061  0.12102212    -0.80420
Co311      Co  0.87333457  0.29391177  0.21109877     1.51530
Co312      Co  0.77690659  0.19217486  0.17052356     1.51690
Co313      Co  0.83589617  0.29723591  0.15264958     1.51570
Co314      Co  0.84005131  0.19389348  0.20951905     1.51470
O315        O  0.84398418  0.24939792  0.17959662    -1.42310
C316        C  0.94618963  0.25878608  0.21777518     1.09240
C317        C  0.78407474  0.22207355  0.11409054     1.09330
C318        C  0.94081164  0.35732905  0.16342504     1.09270
C319        C  0.82895495  0.14310125  0.15695527     1.09240
O320        O  0.86466113  0.36676280  0.46982195    -0.80380
O321        O  0.72774713  0.15675768  0.46148926    -0.80400
O322        O  0.75561171  0.28634978  0.40675080    -0.80410
O323        O  0.83282082  0.21088928  0.98528997    -0.80350
O324        O  0.72238375  0.23323124  0.44088655    -0.80470
O325        O  0.79873984  0.26069891  0.48388611    -0.80390
O326        O  0.78018021  0.13124857  0.45264830    -0.80380
O327        O  0.84852880  0.36347731  0.42471228    -0.80420
C328        C  0.86268352  0.38876432  0.44765001     1.09310
C329        C  0.74329463  0.12688540  0.46664580     1.09200
C330        C  0.72066151  0.26378202  0.42507892     1.09330
C331        C  0.80749539  0.22970807  0.99680416     1.09210
O332        O  0.90267151  0.29462279  0.47536799    -0.80380
O333        O  0.73692301  0.20888483  0.38317050    -0.80460
O334        O  0.89826553  0.31326672  0.39460284    -0.80390
O335        O  0.83938538  0.16828963  0.40644371    -0.80370
O336        O  0.75562628  0.13879855  0.40531175    -0.80420
O337        O  0.91560896  0.34489435  0.43469630    -0.80390
O338        O  0.91195243  0.25050373  0.44204448    -0.80350
O339        O  0.81615072  0.24205908  0.37952586    -0.80420
Co340      Co  0.84883799  0.30139528  0.45568101     1.51530
Co341      Co  0.74088856  0.18854676  0.42369967     1.51690
Co342      Co  0.82865026  0.29669344  0.40299243     1.51570
Co343      Co  0.84184311  0.19525441  0.44501807     1.51470
O344        O  0.81661288  0.24148284  0.43138616    -1.42310
C345        C  0.92867950  0.27765724  0.46334036     1.09240
C346        C  0.77619970  0.22854863  0.36778668     1.09330
C347        C  0.93064974  0.34215870  0.41091674     1.09270
C348        C  0.79492295  0.13672171  0.39756298     1.09240
C349        C  0.84452455  0.30148507  0.30498037    -0.12510
C350        C  0.82406814  0.26526020  0.28472971     0.04500
C351        C  0.77710883  0.22132786  0.29062671    -0.07800
C352        C  0.75751723  0.21066457  0.31786752    -0.08540
C353        C  0.78084620  0.24544337  0.33874150    -0.03090
C354        C  0.82196189  0.29317854  0.33136186     0.03730
N355        N  0.84202082  0.33341227  0.35067559     0.66230
H356        H  0.87835383  0.33645359  0.30028851     0.15130
H357        H  0.72507063  0.17478520  0.32283423     0.14840
N358        N  0.74752326  0.18879864  0.26898188     0.73940
O359        O  0.88824074  0.36608757  0.34916454    -0.39510
O360        O  0.81204757  0.34255630  0.36450859    -0.39460
O361        O  0.72806845  0.14243308  0.27175284    -0.40160
O362        O  0.73252334  0.20568093  0.24989702    -0.40230
C363        C  0.78955391  0.18329991  0.07156682    -0.12510
C364        C  0.77394845  0.21397497  0.08446292     0.04500
C365        C  0.76597621  0.24731083  0.06816725    -0.07800
C366        C  0.77227008  0.24708812  0.03935848    -0.08540
C367        C  0.79235417  0.21958340  0.02659299    -0.03090
C368        C  0.80115088  0.18711796  0.04326667     0.03730
N369        N  0.82772951  0.16263294  0.03323800     0.66230
H370        H  0.79994877  0.16118225  0.08417468     0.15130
H371        H  0.76528478  0.27203654  0.02702762     0.14840
N372        N  0.75622489  0.28461936  0.08019278     0.73940
O373        O  0.87333317  0.18891656  0.02555950    -0.39510
O374        O  0.81302948  0.11885251  0.54107787    -0.39460
O375        O  0.76261719  0.32142472  0.06597088    -0.40160
O376        O  0.74170352  0.28169747  0.10500563    -0.40230
C377        C  0.75545880  0.08489984  0.35649286    -0.12510
C378        C  0.78297956  0.09142730  0.38077035     0.04500
C379        C  0.77746458  0.04800704  0.39395768    -0.07800
C380        C  0.74284944  0.00023476  0.38352041    -0.08540
C381        C  0.71307971  0.99404176  0.36029135    -0.03090
C382        C  0.72012406  0.03733939  0.34659362     0.03730
N383        N  0.68775259  0.03388684  0.32447556     0.66230
H384        H  0.75690627  0.11719469  0.34699742     0.15130
H385        H  0.73846784  0.96743036  0.39392816     0.14840
N386        N  0.80404787  0.05149088  0.41895152     0.73940
O387        O  0.70585475  0.06244663  0.30384006    -0.39510
O388        O  0.64030618  0.00733122  0.32721655    -0.39460
O389        O  0.78633345  0.01579516  0.43599002    -0.40160
O390        O  0.84752740  0.08810754  0.42287890    -0.40230
C391        C  0.69733574  0.98427132  0.22237365    -0.12510
C392        C  0.72718310  0.99207623  0.24596667     0.04500
C393        C  0.76493726  0.04101220  0.25195773    -0.07800
C394        C  0.76797109  0.08063258  0.23618029    -0.08540
C395        C  0.73464301  0.07320640  0.21425687    -0.03090
C396        C  0.69996534  0.02382782  0.20674953     0.03730
N397        N  0.66443081  0.01277437  0.18500565     0.66230
H398        H  0.66792870  0.94682729  0.21762447     0.15130
H399        H  0.79657888  0.11804726  0.24149339     0.14840
N400        N  0.79859225  0.05151533  0.27466831     0.73940
O401        O  0.65211477  0.97530147  0.16985635    -0.39510
O402        O  0.63851056  0.03433638  0.18425491    -0.39460
O403        O  0.81750479  0.02408852  0.27916272    -0.40160
O404        O  0.81505157  0.09179871  0.28778670    -0.40230
C405        C  0.80169580  0.02005702  0.12456806    -0.12510
C406        C  0.75725938  0.00971267  0.11064866     0.04500
C407        C  0.74176720  0.04520780  0.10977597    -0.07800
C408        C  0.76939409  0.08933049  0.12335552    -0.08540
C409        C  0.81188682  0.09946780  0.13902422    -0.03090
C410        C  0.82913123  0.06473802  0.13944043     0.03730
N411        N  0.87306690  0.07367807  0.15466417     0.66230
H412        H  0.81324744  0.99214919  0.12505615     0.15130
H413        H  0.75399503  0.11416849  0.12336750     0.14840
N414        N  0.69621449  0.03629136  0.09668353     0.73940
O415        O  0.87910369  0.03782882  0.16175360    -0.39510
O416        O  0.90809667  0.11746177  0.15905598    -0.39460
O417        O  0.65450782  0.01144854  0.10949866    -0.40160
O418        O  0.69914224  0.06507466  0.07749424    -0.40230
C419        C  0.65488616  0.02754662  0.01918685    -0.12510
C420        C  0.68227883  0.00268122  0.02373144     0.04500
C421        C  0.73139694  0.02204942  0.01188908    -0.07800
C422        C  0.74953136  0.06316513  0.99418221    -0.08540
C423        C  0.72153772  0.08703777  0.98834514    -0.03090
C424        C  0.67433010  0.07011626  0.00210984     0.03730
N425        N  0.64530798  0.09466877  0.99878978     0.66230
H426        H  0.61768081  0.01324410  0.02872150     0.15130
H427        H  0.78663623  0.07665972  0.48470692     0.14840
N428        N  0.76467486  0.00266610  0.01818163     0.73940
O429        O  0.59801396  0.06928532  0.99585268    -0.39510
O430        O  0.66484925  0.14032013  0.00428659    -0.39460
O431        O  0.74787379  0.95715900  0.02295151    -0.40160
O432        O  0.81206299  0.03102146  0.01719506    -0.40230
C433        C  0.65671063  0.78955579  0.43242231    -0.12510
C434        C  0.61212021  0.75973019  0.41827215     0.04500
C435        C  0.56715048  0.72957344  0.43388627    -0.07800
C436        C  0.56781768  0.73381114  0.46312289    -0.08540
C437        C  0.61221598  0.76711810  0.47690137    -0.03090
C438        C  0.65760315  0.79391955  0.46114803     0.03730
N439        N  0.70484627  0.82866304  0.47329440     0.66230
H440        H  0.69085733  0.81411965  0.42081136     0.15130
H441        H  0.53279382  0.71372254  0.47497547     0.14840
N442        N  0.51999099  0.69826309  0.42054909     0.73940
O443        O  0.74513489  0.83251839  0.46309059    -0.39510
O444        O  0.70783262  0.86374098  0.98809651    -0.39460
O445        O  0.51820048  0.67085982  0.40069317    -0.40160
O446        O  0.47908458  0.69270836  0.43093111    -0.40230
C447        C  0.58160564  0.80874684  0.17939362    -0.12510
C448        C  0.62847430  0.83775976  0.16553433     0.04500
C449        C  0.67292058  0.85950318  0.18160547    -0.07800
C450        C  0.67004473  0.85145426  0.20988935    -0.08540
C451        C  0.62381432  0.82502843  0.22420439    -0.03090
C452        C  0.57863385  0.80198105  0.20865618     0.03730
N453        N  0.53019832  0.77088258  0.22183543     0.66230
H454        H  0.54741446  0.79099328  0.16741677     0.15130
H455        H  0.70515607  0.87084081  0.22103194     0.14840
N456        N  0.72145133  0.89478932  0.17027321     0.73940
O457        O  0.49023528  0.76480089  0.21081542    -0.39510
O458        O  0.52652981  0.74426443  0.24238844    -0.39460
O459        O  0.72972857  0.93767731  0.16405922    -0.40160
O460        O  0.75842310  0.88734028  0.17254215    -0.40230
C461        C  0.58051980  0.21504596  0.42864641    -0.12510
C462        C  0.57774447  0.25066531  0.44523842     0.04500
C463        C  0.62334664  0.29389168  0.45292210    -0.07800
C464        C  0.67027416  0.30040281  0.44340712    -0.08540
C465        C  0.67293407  0.26512873  0.42641278    -0.03090
C466        C  0.62738644  0.22200567  0.41903888     0.03730
N467        N  0.62813727  0.18510844  0.40139206     0.66230
H468        H  0.54599129  0.18304847  0.42173376     0.15130
H469        H  0.70504168  0.33179079  0.45055992     0.14840
N470        N  0.62265464  0.33095920  0.47078561     0.73940
O471        O  0.60327572  0.13985138  0.40826926    -0.39510
O472        O  0.64392654  0.19642829  0.37672180    -0.39460
O473        O  0.58934583  0.31861699  0.48971602    -0.40160
O474        O  0.65807958  0.37550316  0.46940340    -0.40230
C475        C  0.66573868  0.26209687  0.20587173    -0.12510
C476        C  0.67711937  0.24822821  0.17998225     0.04500
C477        C  0.64353261  0.24029402  0.15808915    -0.07800
C478        C  0.60194581  0.24833219  0.16222040    -0.08540
C479        C  0.58999919  0.26191859  0.18800875    -0.03090
C480        C  0.62311717  0.26906321  0.21019361     0.03730
N481        N  0.61328242  0.28107792  0.23750642     0.66230
H482        H  0.69082940  0.26838822  0.22290588     0.15130
H483        H  0.57650211  0.24084627  0.14520458     0.14840
N484        N  0.64788056  0.21952461  0.13222458     0.73940
O485        O  0.62019271  0.26086154  0.25830546    -0.39510
O486        O  0.60630961  0.31758851  0.24115933    -0.39460
O487        O  0.65694704  0.18396651  0.13207912    -0.40160
O488        O  0.63308276  0.22971705  0.11024044    -0.40230
C489        C  0.49490962  0.27299053  0.29370748    -0.12510
C490        C  0.45226987  0.23245683  0.28201858     0.04500
C491        C  0.40728383  0.20860875  0.29810100    -0.07800
C492        C  0.40494403  0.22704928  0.32429525    -0.08540
C493        C  0.44629266  0.26907808  0.33568568    -0.03090
C494        C  0.49316149  0.29077836  0.32068994     0.03730
N495        N  0.53894697  0.33042958  0.33215932     0.66230
H496        H  0.52903644  0.29256646  0.28110585     0.15130
H497        H  0.37065909  0.20625362  0.33648757     0.14840
N498        N  0.36325662  0.16558834  0.28786126     0.73940
O499        O  0.58146497  0.34211308  0.32121758    -0.39510
O500        O  0.53746294  0.35456819  0.35293412    -0.39460
O501        O  0.36814975  0.13316865  0.27442187    -0.40160
O502        O  0.31942671  0.15690352  0.29493679    -0.40230
C503        C  0.35834497  0.20781995  0.06958721    -0.12510
C504        C  0.39836346  0.21483473  0.08646507     0.04500
C505        C  0.44365974  0.22138212  0.07373850    -0.07800
C506        C  0.45021345  0.22778036  0.04499551    -0.08540
C507        C  0.41224246  0.22563931  0.02811633    -0.03090
C508        C  0.36415809  0.21272027  0.04041819     0.03730
N509        N  0.32182691  0.20711782  0.02454956     0.66230
H510        H  0.32380984  0.20291865  0.07936817     0.15130
H511        H  0.48576391  0.23468927  0.03557929     0.14840
N512        N  0.48414804  0.22356612  0.08981831     0.73940
O513        O  0.27760997  0.18432193  0.03489611    -0.39510
O514        O  0.32818001  0.22848138  0.50149485    -0.39460
O515        O  0.47450537  0.19800655  0.11163517    -0.40160
O516        O  0.52939742  0.24755870  0.08102558    -0.40230
C517        C  0.46092676  0.64422261  0.34105778    -0.12510
C518        C  0.46097404  0.68876432  0.34588351     0.04500
C519        C  0.41524588  0.68644280  0.35516752    -0.07800
C520        C  0.37011531  0.63976285  0.35693349    -0.08540
C521        C  0.37010862  0.59569859  0.34996687    -0.03090
C522        C  0.41695664  0.59817576  0.34339952     0.03730
N523        N  0.42073527  0.55424661  0.33864396     0.66230
H524        H  0.49616206  0.64517251  0.33566537     0.15130
H525        H  0.33445400  0.63825228  0.36176688     0.14840
N526        N  0.41292012  0.73068943  0.36077396     0.73940
O527        O  0.45354227  0.55550887  0.32175516    -0.39510
O528        O  0.39764063  0.51713571  0.35447529    -0.39460
O529        O  0.43790724  0.76860542  0.34581802    -0.40160
O530        O  0.38106320  0.73004180  0.37814555    -0.40230
C531        C  0.23539764  0.28132017  0.37354692    -0.12510
C532        C  0.26103256  0.30498906  0.34894199     0.04740
C533        C  0.29621915  0.29313517  0.33697566    -0.07800
C534        C  0.30919161  0.26231667  0.35120300    -0.08540
C535        C  0.28857284  0.24335073  0.37744416    -0.03090
C536        C  0.24876027  0.25028210  0.38815348     0.03730
N537        N  0.22257756  0.22708706  0.41372199     0.66230
H538        H  0.20716115  0.28946673  0.38212338     0.15130
H539        H  0.33888457  0.25687220  0.34251870     0.14840
N540        N  0.32010685  0.31314275  0.31066719     0.73940
O541        O  0.19327532  0.23994813  0.42525885    -0.39510
O542        O  0.22388186  0.18986429  0.42319824    -0.39460
O543        O  0.36743981  0.33201422  0.30769551    -0.40160
O544        O  0.29326200  0.30331267  0.28947847    -0.40230
C545        C  0.31490604  0.37553997  0.23275373    -0.12510
C546        C  0.34365550  0.41390605  0.25126841     0.04500
C547        C  0.39704017  0.43779079  0.24911474    -0.07800
C548        C  0.41975997  0.42025053  0.22970846    -0.08540
C549        C  0.39025359  0.37712541  0.21419405    -0.03090
C550        C  0.33703696  0.35457708  0.21597380     0.03730
N551        N  0.30459383  0.30631307  0.20479016     0.66230
H552        H  0.27392672  0.35702034  0.23410490     0.15130
H553        H  0.46056456  0.43645325  0.22932094     0.14840
N554        N  0.42843123  0.47487159  0.26857144     0.73940
O555        O  0.26308276  0.29721643  0.19443738    -0.39510
O556        O  0.30974557  0.27030170  0.21259461    -0.39460
O557        O  0.42119635  0.46532122  0.29413797    -0.40160
O558        O  0.46915594  0.51213487  0.26037673    -0.40230
C559        C  0.03979648  0.29421310  0.22209931    -0.12510
C560        C  0.99110201  0.26932429  0.23401765     0.04500
C561        C  0.98592109  0.26319287  0.26314583    -0.07800
C562        C  0.02887858  0.28808890  0.27956484    -0.08540
C563        C  0.07639452  0.32058422  0.26785763    -0.03090
C564        C  0.08285498  0.31814037  0.23889928     0.03730
N565        N  0.13222117  0.33421638  0.22700078     0.66230
H566        H  0.04412760  0.29522669  0.19978132     0.15130
H567        H  0.02437212  0.28264180  0.30159045     0.14840
N568        N  0.93711844  0.23495572  0.27656121     0.73940
O569        O  0.14208346  0.34929864  0.20225523    -0.39510
O570        O  0.16084612  0.32145163  0.23862728    -0.39460
O571        O  0.90550280  0.19261173  0.26762069    -0.40160
O572        O  0.92814269  0.24918484  0.29945518    -0.40230
C573        C  0.06967739  0.44365095  0.39749184    -0.12510
C574        C  0.08323910  0.41916913  0.37745955     0.04500
C575        C  0.04711683  0.36992671  0.37059662    -0.07800
C576        C  0.00021426  0.34584056  0.38375685    -0.08540
C577        C  0.98488416  0.37044026  0.40231209    -0.03090
C578        C  0.02026365  0.42078305  0.40943805     0.03730
N579        N  0.00682232  0.45062673  0.42681067     0.66230
H580        H  0.09670562  0.48167109  0.40275872     0.15130
H581        H  0.97376882  0.30811377  0.37751273     0.14840
N582        N  0.05332602  0.34655814  0.34676446     0.73940
O583        O  0.02622427  0.49655966  0.42197172    -0.39510
O584        O  0.98121240  0.43337646  0.44884154    -0.39460
O585        O  0.05704049  0.30798537  0.34930759    -0.40160
O586        O  0.04108805  0.35661152  0.32392048    -0.40230
C587        C  0.40324819  0.66013443  0.09222910    -0.12510
C588        C  0.39939829  0.61747288  0.07931543     0.04500
C589        C  0.44171945  0.62149588  0.06437206    -0.07800
C590        C  0.48651419  0.66730905  0.06336069    -0.08540
C591        C  0.48979315  0.70948658  0.07615169    -0.03090
C592        C  0.44790957  0.70612274  0.09092639     0.03730
N593        N  0.44995403  0.74811153  0.10504315     0.66230
H594        H  0.37146729  0.65759545  0.10407581     0.15130
H595        H  0.51878836  0.67046472  0.05168225     0.14840
N596        N  0.43966527  0.58055591  0.04923696     0.73940
O597        O  0.40971063  0.74931446  0.11014070    -0.39510
O598        O  0.49062772  0.78092480  0.11548781    -0.39460
O599        O  0.40682700  0.55940839  0.03087125    -0.40160
O600        O  0.47605873  0.57196909  0.05035918    -0.40230
C601        C  0.29169018  0.36280903  0.11659315    -0.12510
C602        C  0.24050426  0.33560689  0.10987770     0.04500
C603        C  0.21286065  0.28372618  0.11536180    -0.07800
C604        C  0.23841529  0.26156613  0.12811288    -0.08540
C605        C  0.29014107  0.28961765  0.13442000    -0.03090
C606        C  0.31679544  0.34085019  0.12803978     0.03730
N607        N  0.36974539  0.37192607  0.13290846     0.66230
H608        H  0.31349828  0.40240952  0.11251907     0.15130
H609        H  0.21819736  0.22222030  0.13287660     0.14840
N610        N  0.15986614  0.25344156  0.10910249     0.73940
O611        O  0.40147256  0.37381485  0.11503348    -0.39510
O612        O  0.38386006  0.40571781  0.15084423    -0.39460
O613        O  0.13838104  0.26844269  0.09279261    -0.40160
O614        O  0.13451780  0.21009064  0.11900161    -0.40230
C615        C  0.34880284  0.41903212  0.50091332    -0.12510
C616        C  0.32161496  0.39046658  0.02402689     0.04500
C617        C  0.32997232  0.35136489  0.03233110    -0.07800
C618        C  0.36449385  0.34174081  0.01735099    -0.08540
C619        C  0.38809468  0.36732392  0.49285572    -0.03090
C620        C  0.38064324  0.40723648  0.48477925     0.03730
N621        N  0.40549271  0.43651257  0.46051186     0.66230
H622        H  0.34524020  0.45096575  0.49538744     0.15130
H623        H  0.36993067  0.31139770  0.02372519     0.14840
N624        N  0.30047423  0.31819519  0.05430335     0.73940
O625        O  0.38637562  0.45854947  0.44780866    -0.39510
O626        O  0.44968391  0.44596966  0.45391825    -0.39460
O627        O  0.25308660  0.30014755  0.05471249    -0.40160
O628        O  0.31943919  0.29835458  0.06907983    -0.40230
C629        C  0.26008602  0.42092371  0.46174531    -0.12510
C630        C  0.25323267  0.46000368  0.47205781     0.04500
C631        C  0.25437098  0.49503934  0.45305788    -0.07800
C632        C  0.25706559  0.48718277  0.42460045    -0.08540
C633        C  0.26224308  0.44728935  0.41447259    -0.03090
C634        C  0.26679331  0.41530764  0.43331011     0.03730
N635        N  0.27750383  0.37705342  0.42413457     0.66230
H636        H  0.25895119  0.39355111  0.47592652     0.15130
H637        H  0.25471836  0.51250500  0.41018695     0.14840
N638        N  0.25084808  0.53750484  0.46202941     0.73940
O639        O  0.26903872  0.34151085  0.44006791    -0.39510
O640        O  0.30255164  0.38257756  0.40202926    -0.39460
O641        O  0.28062780  0.56613926  0.48007559    -0.40160
O642        O  0.22435788  0.55105808  0.44878556    -0.40230
C643        C  0.22425821  0.50227398  0.18519804    -0.12510
C644        C  0.26369820  0.49926878  0.17144652     0.04500
C645        C  0.29739930  0.49020141  0.18685272    -0.07800
C646        C  0.28547336  0.47608299  0.21454978    -0.08540
C647        C  0.24391850  0.47557177  0.22755296    -0.03090
C648        C  0.21530795  0.49250066  0.21336901     0.03730
N649        N  0.17802800  0.50089649  0.22716888     0.66230
H650        H  0.20015550  0.51242225  0.17401715     0.15130
H651        H  0.30977082  0.46730411  0.22630236     0.14840
N652        N  0.34401083  0.49636273  0.17524541     0.73940
O653        O  0.13639840  0.48784528  0.21570692    -0.39510
O654        O  0.19200772  0.53317955  0.24596632    -0.39460
O655        O  0.37418116  0.53637624  0.16291844    -0.40160
O656        O  0.36027122  0.46805101  0.18289547    -0.40230
C657        C  0.01362098  0.34574550  0.46757737    -0.12510
C658        C  0.98040414  0.29567103  0.47237458     0.04500
C659        C  0.99520586  0.26786424  0.48916115    -0.07800
C660        C  0.04087526  0.29370240  0.00369115    -0.08540
C661        C  0.07189623  0.34522913  0.00030927    -0.03090
C662        C  0.05996507  0.37027948  0.98012134     0.03730
N663        N  0.09390860  0.42118773  0.97273615     0.66230
H664        H  0.00261657  0.36656429  0.45471280     0.15130
H665        H  0.05120791  0.27425212  0.01844775     0.14840
N666        N  0.96422275  0.21478885  0.49251072     0.73940
O667        O  0.07799985  0.45162961  0.47085585    -0.39510
O668        O  0.13880686  0.43456171  0.96524887    -0.39460
O669        O  0.93198806  0.18901221  0.47465270    -0.40160
O670        O  0.97255982  0.19266444  0.01187308    -0.40230
C671        C  0.08303470  0.42377044  0.14259034    -0.12510
C672        C  0.08090441  0.43390903  0.11439053     0.04500
C673        C  0.03442197  0.42742504  0.10456130    -0.07800
C674        C  0.99131675  0.40717518  0.12241475    -0.08540
C675        C  0.99196919  0.39305899  0.15014734    -0.03090
C676        C  0.03973461  0.40426296  0.16069157     0.03730
N677        N  0.04552566  0.39588347  0.18925244     0.66230
H678        H  0.11913684  0.43118018  0.15057830     0.15130
H679        H  0.95558435  0.40001434  0.11398101     0.14840
N680        N  0.02965404  0.44110644  0.07675295     0.73940
O681        O  0.08335801  0.39248967  0.19629846    -0.39510
O682        O  0.01969507  0.40221908  0.20788709    -0.39460
O683        O  0.05653449  0.43928151  0.05708499    -0.40160
O684        O  0.99609874  0.45236410  0.07140993    -0.40230
C685        C  0.46095237  0.86904967  0.34274911    -0.12510
C686        C  0.48991300  0.87304289  0.31895829     0.04500
C687        C  0.46772566  0.86716260  0.29268953    -0.07800
C688        C  0.41735788  0.85626032  0.29096591    -0.08540
C689        C  0.38757943  0.84873041  0.31487655    -0.03090
C690        C  0.40958345  0.85398902  0.34115175     0.03730
N691        N  0.37996819  0.84155204  0.36639560     0.66230
H692        H  0.47695501  0.87276313  0.36304342     0.15130
H693        H  0.40127135  0.85292388  0.27072980     0.14840
N694        N  0.49449485  0.86941562  0.26759349     0.73940
O695        O  0.33984696  0.80010100  0.36866462    -0.39510
O696        O  0.39807533  0.86758728  0.38778162    -0.39460
O697        O  0.50035128  0.83309404  0.26104337    -0.40160
O698        O  0.50146980  0.90136576  0.24941304    -0.40230
C699        C  0.14291347  0.62701646  0.32660850    -0.12510
C700        C  0.18497050  0.67107463  0.31687438     0.04500
C701        C  0.22584290  0.66842422  0.30409404    -0.07800
C702        C  0.22437001  0.62241680  0.30235395    -0.08540
C703        C  0.18201157  0.57850629  0.31179126    -0.03090
C704        C  0.14074386  0.58083637  0.32422319     0.03730
N705        N  0.09779509  0.53761525  0.33602482     0.66230
H706        H  0.11126640  0.62844383  0.33632085     0.15130
H707        H  0.25602274  0.62063527  0.29288427     0.14840
N708        N  0.26742646  0.71112065  0.29124222     0.73940
O709        O  0.07775477  0.54122530  0.35840264    -0.39510
O710        O  0.07554839  0.49776607  0.32246511    -0.39460
O711        O  0.31198333  0.71880208  0.29367483    -0.40160
O712        O  0.25882743  0.73548003  0.27341190    -0.40230
C713        C  0.25916800  0.07063116  0.23502070    -0.12510
C714        C  0.30482446  0.09085717  0.21972690     0.04500
C715        C  0.33591049  0.06890258  0.22200237    -0.07800
C716        C  0.32379104  0.03171954  0.24097185    -0.08540
C717        C  0.27902613  0.01129310  0.25672217    -0.03090
C718        C  0.24488459  0.02955257  0.25290613     0.03730
N719        N  0.19593300  0.00679377  0.26625702     0.66230
H720        H  0.23546678  0.08748711  0.23360142     0.15130
H721        H  0.35070340  0.01868712  0.24317401     0.14840
N722        N  0.38389080  0.08804115  0.20784070     0.73940
O723        O  0.17870352  0.03360568  0.27575907    -0.39510
O724        O  0.16619468  0.96075263  0.26360223    -0.39460
O725        O  0.42372876  0.11104020  0.22165631    -0.40160
O726        O  0.38617872  0.06828302  0.18539849    -0.40230
C727        C  0.30789422  0.00805944  0.35866817    -0.12510
C728        C  0.33883307  0.98847428  0.35122987     0.04500
C729        C  0.39154040  0.01688133  0.35741080    -0.07800
C730        C  0.41087372  0.06394325  0.37092580    -0.08540
C731        C  0.37931415  0.08381428  0.37766517    -0.03090
C732        C  0.32688679  0.05454846  0.37100144     0.03730
N733        N  0.29155119  0.07181757  0.37585078     0.66230
H734        H  0.26792994  0.98749568  0.35394992     0.15130
H735        H  0.45069985  0.08550131  0.37560237     0.14840
N736        N  0.42572932  0.99868961  0.35069562     0.73940
O737        O  0.27124518  0.07996305  0.35550808    -0.39510
O738        O  0.27269579  0.06844125  0.39973036    -0.39460
O739        O  0.41013482  0.95267000  0.34996754    -0.40160
O740        O  0.47263046  0.02854459  0.34800616    -0.40230
C741        C  0.40888322  0.86909616  0.06925844    -0.12510
C742        C  0.38923212  0.87012293  0.04333657     0.04500
C743        C  0.41509317  0.86847652  0.01913402    -0.07800
C744        C  0.45839717  0.86369978  0.02155715    -0.08540
C745        C  0.47898559  0.86424807  0.04752408    -0.03090
C746        C  0.45424135  0.86839988  0.07169542     0.03730
N747        N  0.47601376  0.87590493  0.09863033     0.66230
H748        H  0.39012824  0.87148744  0.08802291     0.15130
H749        H  0.47766575  0.86232203  0.00277802     0.14840
N750        N  0.40081982  0.87579814  0.99217385     0.73940
O751        O  0.44795063  0.85379408  0.11932430    -0.39510
O752        O  0.51909637  0.91307386  0.10270099    -0.39460
O753        O  0.39598111  0.91329360  0.98762126    -0.40160
O754        O  0.40324566  0.85119406  0.97187173    -0.40230
C755        C  0.15384097  0.65189140  0.04055667    -0.12510
C756        C  0.19339459  0.69499753  0.05246673     0.04500
C757        C  0.23543887  0.69326057  0.06283604    -0.07800
C758        C  0.23781078  0.64952910  0.06022736    -0.08540
C759        C  0.19896304  0.60615234  0.04795926    -0.03090
C760        C  0.15635284  0.60763525  0.03783197     0.03730
N761        N  0.11699307  0.56616092  0.02348998     0.66230
H762        H  0.12232314  0.65365931  0.03170049     0.15130
H763        H  0.27038521  0.64942749  0.06879775     0.14840
N764        N  0.27580017  0.73532500  0.07647906     0.73940
O765        O  0.07176913  0.55705151  0.02573625    -0.39510
O766        O  0.12828943  0.54405208  0.00508171    -0.39460
O767        O  0.26610223  0.76165371  0.09277590    -0.40160
O768        O  0.32064619  0.74321869  0.07452588    -0.40230
C769        C  0.32517728  0.03202169  0.44497126    -0.12510
C770        C  0.31141855  0.06635326  0.45539518     0.04500
C771        C  0.28046485  0.05372356  0.47946674    -0.07800
C772        C  0.26814040  0.00925779  0.99353953    -0.08540
C773        C  0.28764635  0.97853062  0.48479536    -0.03090
C774        C  0.31470244  0.98883337  0.45950476     0.03730
N775        N  0.33404431  0.95767481  0.44902477     0.66230
H776        H  0.34987958  0.04202665  0.42698502     0.15130
H777        H  0.24530943  0.99987336  0.01230083     0.14840
N778        N  0.26462910  0.08699550  0.49092331     0.73940
O779        O  0.37246694  0.97551712  0.43308274    -0.39510
O780        O  0.31070500  0.91152667  0.45379629    -0.39460
O781        O  0.26314220  0.11940712  0.47589820    -0.40160
O782        O  0.24843709  0.08177940  0.01561483    -0.40230
C783        C  0.24945632  0.03548659  0.11244989    -0.12510
C784        C  0.27423931  0.02302915  0.09210651     0.04500
C785        C  0.32825316  0.04959298  0.09096311    -0.07800
C786        C  0.35555254  0.08537605  0.11117285    -0.08540
C787        C  0.33043398  0.09729375  0.13167980    -0.03090
C788        C  0.27654740  0.07267038  0.13163224     0.03730
N789        N  0.24812255  0.08348955  0.15162863     0.66230
H790        H  0.20845523  0.01584377  0.11373993     0.15130
H791        H  0.39650750  0.10518967  0.11015565     0.14840
N792        N  0.35622657  0.04095645  0.06957385     0.73940
O793        O  0.23381540  0.11404567  0.14542378    -0.39510
O794        O  0.22588122  0.05332115  0.17126733    -0.39460
O795        O  0.35308518  0.05193825  0.04486225    -0.40160
O796        O  0.39147923  0.03272751  0.07590058    -0.40230
C797        C  0.16077602  0.75202599  0.44554313    -0.12510
C798        C  0.17050736  0.79641760  0.45837846     0.04500
C799        C  0.18043750  0.83842978  0.44228307    -0.07800
C800        C  0.18836838  0.83693615  0.41391174    -0.08540
C801        C  0.18364633  0.79414786  0.40155220    -0.03090
C802        C  0.16623353  0.74998722  0.41689367     0.03730
N803        N  0.15633772  0.70409643  0.40402646     0.66230
H804        H  0.15247773  0.71999252  0.45818333     0.15130
H805        H  0.19988155  0.86980661  0.40131895     0.14840
N806        N  0.18452134  0.88302409  0.45418470     0.73940
O807        O  0.15711911  0.67025768  0.41806618    -0.39510
O808        O  0.14001221  0.69448881  0.37969849    -0.39460
O809        O  0.20499663  0.92307661  0.44047487    -0.40160
O810        O  0.16023350  0.88084780  0.47604496    -0.40230
C811        C  0.27580531  0.91632702  0.19298144    -0.12510
C812        C  0.24674710  0.86788232  0.20311111     0.04500
C813        C  0.22472069  0.82746918  0.18469736    -0.07800
C814        C  0.23022818  0.83766137  0.15618708    -0.08540
C815        C  0.25763190  0.88676908  0.14612776    -0.03090
C816        C  0.28163241  0.92610330  0.16472744     0.03730
N817        N  0.30626468  0.97643857  0.15555549     0.66230
H818        H  0.29266780  0.94719267  0.20724132     0.15130
H819        H  0.21157591  0.80734819  0.14168134     0.14840
N820        N  0.19505823  0.77693402  0.19432820     0.73940
O821        O  0.29322248  0.00575294  0.16614653    -0.39510
O822        O  0.34619785  0.99340530  0.14090326    -0.39460
O823        O  0.20602942  0.76324264  0.21642733    -0.40160
O824        O  0.16084208  0.74459858  0.17939938    -0.40230
C825        C  0.61225650  0.52916728  0.42030972    -0.12510
C826        C  0.63061198  0.53437181  0.44747178     0.04500
C827        C  0.60031912  0.49766108  0.46716919    -0.07800
C828        C  0.55786475  0.45358677  0.45820417    -0.08540
C829        C  0.54308581  0.44549676  0.43032441    -0.03090
C830        C  0.56904328  0.48524524  0.41124200     0.03730
N831        N  0.55528242  0.48105972  0.38249813     0.66230
H832        H  0.63570971  0.55713672  0.40511649     0.15130
H833        H  0.53745163  0.42398100  0.47305634     0.14840
N834        N  0.61493221  0.50233950  0.49569671     0.73940
O835        O  0.57443645  0.51912599  0.36712827    -0.39510
O836        O  0.52426018  0.43980541  0.37211684    -0.39460
O837        O  0.63869771  0.54479962  0.00676313    -0.40160
O838        O  0.59941131  0.46438223  0.01085832    -0.40230
C839        C  0.91100843  0.52299635  0.42010891    -0.12510
C840        C  0.90731671  0.54851115  0.44326715     0.04500
C841        C  0.89678884  0.52297209  0.46916876    -0.07800
C842        C  0.88454663  0.47208292  0.47039986    -0.08540
C843        C  0.88131011  0.44470359  0.44640303    -0.03090
C844        C  0.89660043  0.47203721  0.42099732     0.03730
N845        N  0.89600034  0.44862019  0.39530731     0.66230
H846        H  0.91887820  0.54116289  0.40015847     0.15130
H847        H  0.87502356  0.45301029  0.49016088     0.14840
N848        N  0.89501986  0.54749742  0.49419028     0.73940
O849        O  0.87309361  0.45316775  0.37501217    -0.39510
O850        O  0.92707292  0.43348594  0.39110399    -0.39460
O851        O  0.87600717  0.52295416  0.51620288    -0.40160
O852        O  0.91609973  0.59429079  0.49496261    -0.40230
C853        C  0.76398366  0.77382493  0.03674267    -0.12510
C854        C  0.77731213  0.82209317  0.02897275     0.04500
C855        C  0.81285927  0.84549021  0.00710386    -0.07800
C856        C  0.82689847  0.81569505  0.49076626    -0.08540
C857        C  0.80398648  0.76403518  0.49553348    -0.03090
C858        C  0.77225587  0.74349299  0.01917775     0.03730
N859        N  0.74232566  0.69102641  0.02408778     0.66230
H860        H  0.73885963  0.75642989  0.05434423     0.15130
H861        H  0.85275657  0.83198867  0.47329664     0.14840
N862        N  0.83289070  0.89728591  0.00054771     0.73940
O863        O  0.74773833  0.67313038  0.04630028    -0.39510
O864        O  0.70164426  0.66657336  0.51134329    -0.39460
O865        O  0.83158477  0.92668805  0.01829025    -0.40160
O866        O  0.85629781  0.91474707  0.47787230    -0.40230
C867        C  0.74149134  0.77685526  0.37473931    -0.12510
C868        C  0.76081742  0.80186131  0.34939101     0.04500
C869        C  0.79746287  0.79349684  0.33503302    -0.07800
C870        C  0.81287335  0.76085591  0.34693550    -0.08540
C871        C  0.78942352  0.73321632  0.37124665    -0.03090
C872        C  0.75121649  0.73999583  0.38412958     0.03730
N873        N  0.72101247  0.70858396  0.40678670     0.66230
H874        H  0.71183117  0.78038014  0.38526750     0.15130
H875        H  0.84356018  0.75746231  0.33746280     0.14840
N876        N  0.81921364  0.81710608  0.30879111     0.73940
O877        O  0.70610700  0.72583967  0.42622848    -0.39510
O878        O  0.70671309  0.66273632  0.40661461    -0.39460
O879        O  0.81487374  0.85326206  0.30040344    -0.40160
O880        O  0.84606436  0.80414838  0.29466464    -0.40230
C881        C  0.99342889  0.81167183  0.35978863    -0.12510
C882        C  0.99290350  0.78465305  0.38305257     0.04500
C883        C  0.03686672  0.78378697  0.39036107    -0.07800
C884        C  0.07907506  0.80618673  0.37301063    -0.08540
C885        C  0.07827196  0.82781226  0.34791493    -0.03090
C886        C  0.03616258  0.83387268  0.34185655     0.03730
N887        N  0.03445599  0.85874673  0.31710083     0.66230
H888        H  0.95920327  0.81219219  0.35457450     0.15130
H889        H  0.11095043  0.80199061  0.37798914     0.14840
N890        N  0.03807603  0.75708327  0.41423560     0.73940
O891        O  0.99263923  0.85205626  0.30843267    -0.39510
O892        O  0.07465681  0.89068446  0.30509637    -0.39460
O893        O  0.01368632  0.71022466  0.41462267    -0.40160
O894        O  0.07047678  0.77967277  0.43255472    -0.40230
C895        C  0.94925922  0.74051051  0.02336791    -0.12510
C896        C  0.94967500  0.74123715  0.99431113     0.04500
C897        C  0.99034832  0.78398397  0.48117027    -0.07800
C898        C  0.03558363  0.81274316  0.49535100    -0.08540
C899        C  0.03722497  0.80810023  0.02378628    -0.03090
C900        C  0.99126391  0.77670223  0.03816425     0.03730
N901        N  0.98643046  0.78436166  0.06719587     0.66230
H902        H  0.91561662  0.71343291  0.03443090     0.15130
H903        H  0.06862057  0.84084703  0.48446340     0.14840
N904        N  0.98243537  0.80599712  0.45716790     0.73940
O905        O  0.01614435  0.82594816  0.07771219    -0.39510
O906        O  0.94614885  0.75587286  0.08031664    -0.39460
O907        O  0.94639882  0.81512325  0.45810807    -0.40160
O908        O  0.01945824  0.83233429  0.44120655    -0.40230
C909        C  0.60076367  0.48757497  0.18056781    -0.12510
C910        C  0.62673491  0.48470085  0.20342195     0.04500
C911        C  0.62946131  0.44123883  0.20814916    -0.07800
C912        C  0.61385119  0.40542839  0.18769139    -0.08540
C913        C  0.58164911  0.40491899  0.16746851    -0.03090
C914        C  0.57903244  0.44815145  0.16187709     0.03730
N915        N  0.55060275  0.45011862  0.13887361     0.66230
H916        H  0.60178966  0.52225267  0.17589590     0.15130
H917        H  0.61570295  0.37197533  0.19172614     0.14840
N918        N  0.65365052  0.43635398  0.23216172     0.73940
O919        O  0.54039950  0.48481471  0.13686787    -0.39510
O920        O  0.53727027  0.41825496  0.11981591    -0.39460
O921        O  0.63898177  0.44157853  0.25588920    -0.40160
O922        O  0.68408037  0.41986999  0.22999183    -0.40230
C923        C  0.81698204  0.45312584  0.22103384    -0.12510
C924        C  0.79012556  0.45621124  0.19848800     0.04500
C925        C  0.76097642  0.41355850  0.18236262    -0.07800
C926        C  0.76415209  0.37123852  0.18722923    -0.08540
C927        C  0.79668169  0.37058519  0.20701883    -0.03090
C928        C  0.82118621  0.41080293  0.22521896     0.03730
N929        N  0.85476600  0.41132943  0.24579490     0.66230
H930        H  0.83804046  0.48505435  0.23420251     0.15130
H931        H  0.74733144  0.34199044  0.17221584     0.14840
N932        N  0.73392252  0.41400170  0.15849900     0.73940
O933        O  0.89552956  0.45076834  0.25076245    -0.39510
O934        O  0.84111299  0.37386679  0.26110375    -0.39460
O935        O  0.75857483  0.43569748  0.13678759    -0.40160
O936        O  0.68801279  0.38116947  0.15639131    -0.40230
C937        C  0.73019424  0.77824033  0.24393547    -0.12510
C938        C  0.69964307  0.75534377  0.26755310     0.04500
C939        C  0.70575127  0.71923953  0.28185171    -0.07800
C940        C  0.74267060  0.70800495  0.27259543    -0.08540
C941        C  0.77071755  0.72788481  0.24781677    -0.03090
C942        C  0.76494505  0.76429623  0.23348961     0.03730
N943        N  0.79276566  0.78670347  0.20835070     0.66230
H944        H  0.72735684  0.80770782  0.23371664     0.15130
H945        H  0.74646192  0.67975677  0.28372394     0.14840
N946        N  0.67527856  0.69367204  0.30582182     0.73940
O947        O  0.77335874  0.80053509  0.19000825    -0.39510
O948        O  0.83914331  0.79984227  0.20627390    -0.39460
O949        O  0.62776457  0.67427732  0.30515549    -0.40160
O950        O  0.69442164  0.68209593  0.32537825    -0.40230
C951        C  0.65872871  0.64095105  0.13540428    -0.12510
C952        C  0.70790990  0.66289360  0.14570262     0.04500
C953        C  0.74476973  0.71115258  0.13707762    -0.07800
C954        C  0.73017932  0.73727548  0.11947079    -0.08540
C955        C  0.68068412  0.71593886  0.10952012    -0.03090
C956        C  0.64436842  0.66708529  0.11759626     0.03730
N957        N  0.59267188  0.64424852  0.10902361     0.66230
H958        H  0.63105312  0.60348931  0.14174347     0.15130
H959        H  0.75829775  0.77423189  0.11266001     0.14840
N960        N  0.79728834  0.73315443  0.14456071     0.73940
O961        O  0.56922137  0.59872557  0.10283003    -0.39510
O962        O  0.56810793  0.66701519  0.11196896    -0.39460
O963        O  0.81724080  0.70642246  0.14838863    -0.40160
O964        O  0.82573699  0.77970780  0.14345332    -0.40230
C965        C  0.99561307  0.78664401  0.15165148    -0.12510
C966        C  0.97442522  0.73496190  0.15158871     0.04500
C967        C  0.00295032  0.71404483  0.13975153    -0.07800
C968        C  0.04828144  0.74420858  0.12602605    -0.08540
C969        C  0.06721257  0.79498298  0.12384442    -0.03090
C970        C  0.04245521  0.81723947  0.13832251     0.03730
N971        N  0.06428498  0.87027010  0.13988310     0.66230
H972        H  0.97577833  0.80315795  0.16213699     0.15130
H973        H  0.06767853  0.72687747  0.11589579     0.14840
N974        N  0.98877498  0.66274574  0.14236711     0.73940
O975        O  0.03613088  0.88949944  0.14026146    -0.39510
O976        O  0.11067278  0.89721792  0.14506270    -0.39460
O977        O  0.95547198  0.63118593  0.12681220    -0.40160
O978        O  0.01999032  0.65217552  0.15281428    -0.40230
C979        C  0.07619558  0.69610431  0.23295366    -0.12510
C980        C  0.07794008  0.73673333  0.24725761     0.04500
C981        C  0.03360967  0.74083978  0.24808661    -0.07800
C982        C  0.99091652  0.70737071  0.23392349    -0.08540
C983        C  0.98832838  0.66671373  0.21975830    -0.03090
C984        C  0.03148690  0.66026504  0.21959732     0.03730
N985        N  0.03008033  0.61692700  0.20770475     0.66230
H986        H  0.10909757  0.69131304  0.23300144     0.15130
H987        H  0.95813312  0.71241269  0.23523254     0.14840
N988        N  0.02872979  0.77539854  0.26578810     0.73940
O989        O  0.07040713  0.61889588  0.19893412    -0.39510
O990        O  0.99010063  0.57523162  0.20906739    -0.39460
O991        O  0.01982814  0.80749570  0.25540799    -0.40160
O992        O  0.01961041  0.76512323  0.29119674    -0.40230
C993        C  0.83500051  0.57642888  0.29887043    -0.12510
C994        C  0.79024504  0.57000527  0.28741453     0.04500
C995        C  0.74816795  0.55774611  0.30565950    -0.07800
C996        C  0.75279728  0.55265688  0.33446064    -0.08540
C997        C  0.79876012  0.56208962  0.34593944    -0.03090
C998        C  0.84009516  0.57339212  0.32747045     0.03730
N999        N  0.88887896  0.58525590  0.33745077     0.66230
H1000       H  0.86777641  0.58694137  0.28544613     0.15130
H1001       H  0.72143744  0.54548244  0.34829934     0.14840
N1002       N  0.70246505  0.55523369  0.29615859     0.73940
O1003       O  0.89319742  0.55568257  0.35347578    -0.39510
O1004       O  0.92815868  0.62349143  0.32865939    -0.39460
O1005       O  0.68502682  0.53691395  0.27292856    -0.40160
O1006       O  0.67631223  0.56632066  0.31218812    -0.40230
C1007       C  0.84256701  0.59218142  0.04376034    -0.12510
C1008       C  0.79457322  0.55724170  0.03383239     0.04500
C1009       C  0.76017446  0.52104383  0.05283968    -0.07800
C1010       C  0.77382042  0.52323075  0.08113292    -0.08540
C1011       C  0.82066067  0.56080434  0.09143742    -0.03090
C1012       C  0.85559081  0.59498177  0.07189657     0.03730
N1013       N  0.90140507  0.63723530  0.08065715     0.66230
H1014       H  0.86849919  0.62160420  0.03000975     0.15130
H1015       H  0.74596140  0.49748221  0.09583564     0.14840
N1016       N  0.71046242  0.48394503  0.04426141     0.73940
O1017       O  0.94159520  0.65239208  0.06636944    -0.39510
O1018       O  0.89962918  0.66450288  0.09958319    -0.39460
O1019       O  0.70221493  0.47134722  0.01918138    -0.40160
O1020       O  0.67539252  0.46101306  0.06194983    -0.40230
O1021       O  0.85080922  0.56775165  0.64024293    -0.80380
O1022       O  0.76222881  0.65127198  0.73849759    -0.80400
O1023       O  0.71906822  0.59475769  0.65254358    -0.80410
O1024       O  0.91324530  0.71498352  0.68855106    -0.80350
O1025       O  0.73685970  0.64502409  0.68689470    -0.80470
O1026       O  0.89875572  0.66046269  0.65601952    -0.80390
O1027       O  0.83056581  0.71266161  0.72009392    -0.80380
O1028       O  0.79350716  0.58738453  0.63015419    -0.80420
C1029       C  0.82318403  0.57280352  0.62201725     1.09310
C1030       C  0.79003860  0.69707142  0.73464331     1.09200
C1031       C  0.72115415  0.63263120  0.66283651     1.09330
C1032       C  0.92543810  0.70287627  0.66569451     1.09210
O1033       O  0.93091157  0.60791171  0.68524548    -0.80380
O1034       O  0.67926696  0.56644792  0.72135789    -0.80460
O1035       O  0.77650407  0.51030741  0.67003000    -0.80390
O1036       O  0.82889630  0.63299230  0.75311964    -0.80370
O1037       O  0.76472104  0.56301467  0.73938082    -0.80420
O1038       O  0.83136644  0.54294380  0.70222431    -0.80390
O1039       O  0.89838194  0.62833358  0.71969512    -0.80350
O1040       O  0.71189114  0.52798499  0.69763921    -0.80420
Co1041     Co  0.86450196  0.60255944  0.67921066     1.51530
Co1042     Co  0.75009567  0.60120671  0.71080414     1.51690
Co1043     Co  0.75518841  0.56063936  0.66454493     1.51570
Co1044     Co  0.86364169  0.66949778  0.71771598     1.51470
O1045       O  0.81143805  0.62022812  0.68819346    -1.42310
C1046       C  0.93801314  0.63244039  0.70761229     1.09240
C1047       C  0.67359630  0.52906587  0.70767883     1.09330
C1048       C  0.79821321  0.50512240  0.69055350     1.09270
C1049       C  0.79453244  0.58865358  0.75835668     1.09240
O1050       O  0.81349958  0.71906344  0.91380866    -0.80380
O1051       O  0.70791719  0.54348577  0.93496480    -0.80400
O1052       O  0.85079811  0.60606118  0.88294749    -0.80410
O1053       O  0.77773520  0.68615806  0.97625855    -0.80350
O1054       O  0.77186795  0.55278098  0.89485420    -0.80470
O1055       O  0.85159422  0.74576383  0.96166965    -0.80390
O1056       O  0.71259538  0.59374280  0.96735369    -0.80380
O1057       O  0.83408868  0.68543853  0.88172733    -0.80420
C1058       C  0.81278757  0.71054991  0.88890093     1.09310
C1059       C  0.68660751  0.56001686  0.95012272     1.09200
C1060       C  0.80718570  0.57287241  0.87639046     1.09330
C1061       C  0.81171686  0.73103013  0.97645250     1.09210
O1062       O  0.91118876  0.70084031  0.95245429    -0.80380
O1063       O  0.83535262  0.55104898  0.93698283    -0.80460
O1064       O  0.93014500  0.70261133  0.89165203    -0.80390
O1065       O  0.77125479  0.60887515  0.01060704    -0.80370
O1066       O  0.77991476  0.55406348  0.98276505    -0.80420
O1067       O  0.91910887  0.76184987  0.91178606    -0.80390
O1068       O  0.86193004  0.67443486  0.98899662    -0.80350
O1069       O  0.90209152  0.62502811  0.93178825    -0.80420
Co1070     Co  0.86036527  0.70544128  0.93125452     1.51530
Co1071     Co  0.77615870  0.55662551  0.93728896     1.51690
Co1072     Co  0.86679953  0.65802373  0.91026400     1.51570
Co1073     Co  0.78910497  0.62981726  0.97435961     1.51470
O1074       O  0.80524131  0.63284658  0.93557808    -1.42310
C1075       C  0.90588622  0.70204618  0.97809827     1.09240
C1076       C  0.88178134  0.57844601  0.93755665     1.09330
C1077       C  0.94499341  0.74867887  0.89587736     1.09270
C1078       C  0.77834004  0.57179724  0.00775589     1.09240
O1079       O  0.08703220  0.77925097  0.54301570    -0.80380
O1080       O  0.31634726  0.94725000  0.52093063    -0.80400
O1081       O  0.19930383  0.94541594  0.58172315    -0.80410
O1082       O  0.23094390  0.80654255  0.99000981    -0.80350
O1083       O  0.26364758  0.96825680  0.55554605    -0.80470
O1084       O  0.16343875  0.81030026  0.00650855    -0.80390
O1085       O  0.24347467  0.89712399  0.50367346    -0.80380
O1086       O  0.12529747  0.86181616  0.54023025    -0.80420
C1087       C  0.08523533  0.81782907  0.53635583     1.09310
C1088       C  0.28269078  0.93885728  0.50355567     1.09200
C1089       C  0.24362106  0.97816456  0.57507111     1.09330
C1090       C  0.18805894  0.80291566  0.98651530     1.09210
O1091       O  0.15617236  0.74761318  0.55247263    -0.80380
O1092       O  0.28915815  0.92416240  0.60196014    -0.80460
O1093       O  0.11636310  0.86348137  0.59449308    -0.80390
O1094       O  0.31477940  0.86331664  0.52213271    -0.80370
O1095       O  0.33464078  0.89480080  0.56394672    -0.80420
O1096       O  0.13085819  0.80082391  0.59087874    -0.80390
O1097       O  0.23637323  0.78072557  0.54176817    -0.80350
O1098       O  0.20676348  0.87397851  0.60870818    -0.80420
Co1099     Co  0.15628857  0.81220378  0.54979174     1.51530
Co1100     Co  0.29737785  0.93050197  0.56088858     1.51690
Co1101     Co  0.17353784  0.87285386  0.57377432     1.51570
Co1102     Co  0.23948261  0.83875440  0.52351675     1.51470
O1103       O  0.23079578  0.86442634  0.55695079    -1.42310
C1104       C  0.19522392  0.74339679  0.54924420     1.09240
C1105       C  0.25139992  0.89582315  0.61718915     1.09330
C1106       C  0.10660981  0.82105721  0.60254579     1.09270
C1107       C  0.34367588  0.87585014  0.54297001     1.09240
O1108       O  0.15736426  0.76477768  0.77094560    -0.80380
O1109       O  0.31518267  0.83684894  0.78966385    -0.80400
O1110       O  0.21232091  0.88178585  0.74375156    -0.80410
O1111       O  0.22623349  0.76096998  0.82193852    -0.80350
O1112       O  0.26407307  0.85004436  0.74712527    -0.80470
O1113       O  0.14160621  0.71718153  0.81988009    -0.80390
O1114       O  0.31678802  0.85172093  0.83281410    -0.80380
O1115       O  0.12636015  0.81473972  0.76912836    -0.80420
C1116       C  0.12393444  0.77412700  0.76224241     1.09310
C1117       C  0.33671157  0.84319640  0.81238568     1.09200
C1118       C  0.23804126  0.86320716  0.73291635     1.09330
C1119       C  0.18418121  0.71847825  0.82001577     1.09210
O1120       O  0.17578910  0.79513131  0.85303652    -0.80380
O1121       O  0.29266474  0.94517244  0.76601412    -0.80460
O1122       O  0.15038615  0.87399256  0.81850240    -0.80390
O1123       O  0.27108018  0.90449388  0.84603045    -0.80370
O1124       O  0.33226367  0.93368622  0.81349325    -0.80420
O1125       O  0.11422411  0.79213592  0.81843746    -0.80390
O1126       O  0.24997529  0.81451552  0.87018338    -0.80350
O1127       O  0.23408005  0.94773856  0.79119150    -0.80420
Co1128     Co  0.17529453  0.78468851  0.81029302     1.51530
Co1129     Co  0.29693271  0.88815857  0.78030358     1.51690
Co1130     Co  0.18371305  0.87883817  0.78227598     1.51570
Co1131     Co  0.24566095  0.83462876  0.83412255     1.51470
O1132       O  0.22753334  0.85324589  0.79898273    -1.42310
C1133       C  0.20367568  0.79962069  0.87367324     1.09240
C1134       C  0.26898421  0.96730947  0.77333532     1.09330
C1135       C  0.11585361  0.83197590  0.82695946     1.09270
C1136       C  0.31317982  0.93952941  0.83627576     1.09240
O1137       O  0.16876021  0.51628413  0.54578107    -0.80380
O1138       O  0.30953458  0.42978744  0.56316207    -0.80400
O1139       O  0.31343794  0.57227075  0.59329074    -0.80410
O1140       O  0.22879737  0.42062138  0.01672100    -0.80350
O1141       O  0.34891131  0.52881176  0.57696992    -0.80470
O1142       O  0.22436098  0.48696222  0.51249714    -0.80390
O1143       O  0.24738025  0.39968214  0.53294862    -0.80380
O1144       O  0.24470625  0.56578592  0.55820827    -0.80420
C1145       C  0.20427240  0.56060201  0.54920045     1.09310
C1146       C  0.29063444  0.40644437  0.54120957     1.09200
C1147       C  0.35125447  0.57001332  0.58284028     1.09330
C1148       C  0.23609039  0.45715273  0.00148923     1.09210
O1149       O  0.12461745  0.42015108  0.52323902    -0.80380
O1150       O  0.30038234  0.50175944  0.62739124    -0.80460
O1151       O  0.16109779  0.49991718  0.59735172    -0.80390
O1152       O  0.20250401  0.35898262  0.57417822    -0.80370
O1153       O  0.23593039  0.40780179  0.60906767    -0.80420
O1154       O  0.13520419  0.42658505  0.57953632    -0.80390
O1155       O  0.13567619  0.35688082  0.53338332    -0.80350
O1156       O  0.22888343  0.49974666  0.62874692    -0.80420
Co1157     Co  0.18221733  0.45750091  0.54666994     1.51530
Co1158     Co  0.29389183  0.46657946  0.59215754     1.51690
Co1159     Co  0.23753681  0.53137517  0.59295376     1.51570
Co1160     Co  0.19291301  0.41038706  0.55397260     1.51470
O1161       O  0.24311265  0.47850463  0.57108843    -1.42310
C1162       C  0.11225957  0.37465033  0.51984431     1.09240
C1163       C  0.26486278  0.50087184  0.64114630     1.09330
C1164       C  0.12822597  0.45411446  0.59644929     1.09270
C1165       C  0.22104655  0.36631383  0.59808622     1.09240
O1166       O  0.15269862  0.49435413  0.79829684    -0.80380
O1167       O  0.32821222  0.45992114  0.78739419    -0.80400
O1168       O  0.28311861  0.52934983  0.85980203    -0.80410
O1169       O  0.21491887  0.41056158  0.76053342    -0.80350
O1170       O  0.32305654  0.52614854  0.82247400    -0.80470
O1171       O  0.23155172  0.48626944  0.77408682    -0.80390
O1172       O  0.27610306  0.38095746  0.78307797    -0.80380
O1173       O  0.21913242  0.52932945  0.82445534    -0.80420
C1174       C  0.18414123  0.53195462  0.81145333     1.09310
C1175       C  0.31501554  0.41965491  0.77487570     1.09200
C1176       C  0.32235611  0.54910841  0.84384306     1.09330
C1177       C  0.23057654  0.45678604  0.75566485     1.09210
O1178       O  0.13556591  0.40477598  0.78074394    -0.80380
O1179       O  0.29826821  0.45825607  0.86910289    -0.80460
O1180       O  0.17228197  0.48172601  0.87250334    -0.80390
O1181       O  0.21263869  0.33730410  0.82914154    -0.80370
O1182       O  0.29578112  0.38793939  0.83352995    -0.80420
O1183       O  0.13679695  0.42720854  0.83860738    -0.80390
O1184       O  0.13794769  0.34738672  0.80381912    -0.80350
O1185       O  0.21589274  0.42324446  0.87345992    -0.80420
Co1186     Co  0.18714267  0.45816755  0.80585908     1.51530
Co1187     Co  0.30770252  0.45758392  0.82725487     1.51690
Co1188     Co  0.21537171  0.47073479  0.84710371     1.51570
Co1189     Co  0.21045552  0.37254266  0.79590439     1.51470
O1190       O  0.23520163  0.43588759  0.81785500    -1.42310
C1191       C  0.11741108  0.35895397  0.78532832     1.09240
C1192       C  0.25840200  0.43892728  0.88429168     1.09330
C1193       C  0.13300209  0.44481046  0.86232934     1.09270
C1194       C  0.25561924  0.34578214  0.83730154     1.09240
O1195       O  0.51117790  0.33065640  0.65359572    -0.80380
O1196       O  0.40242590  0.15270476  0.66013388    -0.80400
O1197       O  0.52780232  0.28378716  0.70886434    -0.80410
O1198       O  0.35946083  0.21267877  0.63183366    -0.80350
O1199       O  0.50253599  0.22394505  0.67728394    -0.80470
O1200       O  0.43995243  0.26377421  0.62449279    -0.80390
O1201       O  0.33854942  0.16697696  0.65416163    -0.80380
O1202       O  0.51154107  0.35949700  0.69432238    -0.80420
C1203       C  0.53313751  0.36222759  0.67165419     1.09310
C1204       C  0.35878464  0.13972169  0.65054125     1.09200
C1205       C  0.53797534  0.25766074  0.69132027     1.09330
C1206       C  0.39887023  0.23009997  0.61574648     1.09210
O1207       O  0.36529472  0.29006867  0.64666759    -0.80380
O1208       O  0.46677418  0.21205142  0.73431003    -0.80460
O1209       O  0.41550022  0.31798803  0.71914733    -0.80390
O1210       O  0.31180819  0.15986381  0.69166396    -0.80370
O1211       O  0.37349749  0.16754321  0.71650085    -0.80420
O1212       O  0.43494177  0.35706877  0.67908799    -0.80390
O1213       O  0.29325401  0.22640445  0.66189054    -0.80350
O1214       O  0.42501948  0.24892163  0.74117753    -0.80420
Co1215     Co  0.43860965  0.30620328  0.65308461     1.51530
Co1216     Co  0.43567549  0.19301111  0.69484241     1.51690
Co1217     Co  0.46695160  0.29876980  0.71430024     1.51570
Co1218     Co  0.35412057  0.22935511  0.67425291     1.51470
O1219       O  0.42664344  0.25272089  0.68319398    -1.42310
C1220       C  0.31655406  0.26682116  0.64819586     1.09240
C1221       C  0.44769953  0.22952492  0.75144598     1.09330
C1222       C  0.41414147  0.34904927  0.70314132     1.09270
C1223       C  0.32953977  0.14182939  0.70886606     1.09240
O1224       O  0.46018815  0.37908791  0.91714300    -0.80380
O1225       O  0.43031077  0.15912824  0.90861631    -0.80400
O1226       O  0.52975926  0.28878359  0.94061167    -0.80410
O1227       O  0.45025328  0.24995943  0.88138917    -0.80350
O1228       O  0.48776419  0.21244301  0.95614780    -0.80470
O1229       O  0.41868914  0.29961606  0.87565830    -0.80390
O1230       O  0.37397315  0.15547114  0.88117960    -0.80380
O1231       O  0.51792427  0.36081025  0.92615482    -0.80420
C1232       C  0.50572730  0.39318788  0.92269392     1.09310
C1233       C  0.39767308  0.13544845  0.88915321     1.09200
C1234       C  0.52893207  0.24984450  0.94778088     1.09330
C1235       C  0.44147559  0.27686851  0.86587318     1.09210
O1236       O  0.33239845  0.24962791  0.91801060    -0.80380
O1237       O  0.39517213  0.21032676  0.98004226    -0.80460
O1238       O  0.45129050  0.34713312  0.97521108    -0.80390
O1239       O  0.34066004  0.14946368  0.93394067    -0.80370
O1240       O  0.39288467  0.13203152  0.95680406    -0.80420
O1241       O  0.37952286  0.32113040  0.95282358    -0.80390
O1242       O  0.34405314  0.21143353  0.88534674    -0.80350
O1243       O  0.46916203  0.27137774  0.99097113    -0.80420
Co1244     Co  0.39977057  0.30860349  0.91637875     1.51530
Co1245     Co  0.41738679  0.19598788  0.94402397     1.51690
Co1246     Co  0.48814182  0.31358939  0.95665476     1.51570
Co1247     Co  0.39675769  0.20613973  0.90712823     1.51470
O1248       O  0.42868645  0.26527475  0.93260432    -1.42310
C1249       C  0.31877153  0.22966661  0.89521300     1.09240
C1250       C  0.42553085  0.23688252  0.49818895     1.09330
C1251       C  0.40788094  0.34390517  0.97271567     1.09270
C1252       C  0.34871624  0.11857277  0.94875513     1.09240
O1253       O  0.63600431  0.72782280  0.57276157    -0.80380
O1254       O  0.54483675  0.85842363  0.57196114    -0.80400
O1255       O  0.67735552  0.86063357  0.62433624    -0.80410
O1256       O  0.54291886  0.78369913  0.55156327    -0.80350
O1257       O  0.59747012  0.84196673  0.61974357    -0.80470
O1258       O  0.57454849  0.76361235  0.58599375    -0.80390
O1259       O  0.54947990  0.86310917  0.52571963    -0.80380
O1260       O  0.69315521  0.79440039  0.59551432    -0.80420
C1261       C  0.66880338  0.74684209  0.59156733     1.09310
C1262       C  0.52719780  0.86301665  0.54840487     1.09200
C1263       C  0.63334746  0.84555596  0.63470855     1.09330
C1264       C  0.53717606  0.75611832  0.57214749     1.09210
O1265       O  0.60193920  0.75783543  0.52695639    -0.80380
O1266       O  0.67863143  0.93750713  0.60946262    -0.80460
O1267       O  0.75555157  0.87360721  0.55593799    -0.80390
O1268       O  0.65146971  0.91674201  0.52603180    -0.80370
O1269       O  0.63838559  0.94975226  0.56256344    -0.80420
O1270       O  0.69560834  0.80407484  0.53964219    -0.80390
O1271       O  0.61436553  0.82679113  0.50714945    -0.80350
O1272       O  0.73947595  0.93908006  0.58418029    -0.80420
Co1273     Co  0.63606143  0.78698790  0.56385158     1.51530
Co1274     Co  0.61687451  0.89170255  0.58893683     1.51690
Co1275     Co  0.71192677  0.86734521  0.58792160     1.51570
Co1276     Co  0.60027490  0.85301160  0.54063076     1.51470
O1277       O  0.64929339  0.85495535  0.56529952    -1.42310
C1278       C  0.60881812  0.78391705  0.00522082     1.09240
C1279       C  0.72357247  0.96008275  0.60038419     1.09330
C1280       C  0.74169121  0.83684698  0.54045842     1.09270
C1281       C  0.65701897  0.95454707  0.53839136     1.09240
O1282       O  0.67960560  0.77820713  0.83750419    -0.80380
O1283       O  0.66924337  0.93500216  0.82456946    -0.80400
O1284       O  0.73153719  0.93639379  0.78188283    -0.80410
O1285       O  0.63228375  0.81843558  0.88294210    -0.80350
O1286       O  0.65752800  0.93034154  0.77080382    -0.80470
O1287       O  0.59278239  0.74194847  0.86953575    -0.80390
O1288       O  0.64901836  0.90844904  0.86768544    -0.80380
O1289       O  0.73538015  0.85665981  0.82421726    -0.80420
C1290       C  0.72447408  0.81458924  0.83584192     1.09310
C1291       C  0.67509411  0.94271183  0.85037389     1.09200
C1292       C  0.70580335  0.95170789  0.76732740     1.09330
C1293       C  0.61263789  0.77323971  0.88876393     1.09210
O1294       O  0.53834051  0.73467824  0.82142310    -0.80380
O1295       O  0.59122606  0.82766327  0.77017458    -0.80460
O1296       O  0.69827936  0.82664666  0.78400474    -0.80390
O1297       O  0.54705157  0.86165567  0.84598737    -0.80370
O1298       O  0.56857806  0.88354571  0.80242903    -0.80420
O1299       O  0.62700230  0.75508160  0.78891496    -0.80390
O1300       O  0.52837876  0.76936971  0.86013122    -0.80350
O1301       O  0.66981207  0.85127651  0.76636938    -0.80420
Co1302     Co  0.60956170  0.75675585  0.82836569     1.51530
Co1303     Co  0.62949595  0.87779402  0.79871817     1.51690
Co1304     Co  0.68572365  0.87625378  0.80642199     1.51570
Co1305     Co  0.59159140  0.83931687  0.86211455     1.51470
O1306       O  0.62040818  0.82697877  0.82680683    -1.42310
C1307       C  0.51078609  0.73490272  0.84162543     1.09240
C1308       C  0.62685197  0.83236170  0.75482686     1.09330
C1309       C  0.67323158  0.77902211  0.78111668     1.09270
C1310       C  0.53864701  0.87401460  0.82266218     1.09240
O1311       O  0.81415378  0.30442588  0.71367647    -0.80380
O1312       O  0.72541707  0.12026397  0.67574171    -0.80400
O1313       O  0.75878100  0.27234243  0.65760457    -0.80410
O1314       O  0.83792862  0.23330985  0.74304605    -0.80350
O1315       O  0.73202974  0.21399646  0.68930908    -0.80470
O1316       O  0.88502074  0.31557710  0.74859509    -0.80390
O1317       O  0.76570546  0.16056750  0.71119156    -0.80380
O1318       O  0.84601532  0.35114613  0.67808733    -0.80420
C1319       C  0.82004058  0.34082741  0.69987937     1.09310
C1320       C  0.73929993  0.11849611  0.70015938     1.09200
C1321       C  0.72511654  0.24489376  0.67574471     1.09330
C1322       C  0.85152640  0.27253217  0.75780027     1.09210
O1323       O  0.93836145  0.29376155  0.71237447    -0.80380
O1324       O  0.75204740  0.19613761  0.63271409    -0.80460
O1325       O  0.90874026  0.32693634  0.64667282    -0.80390
O1326       O  0.83876393  0.14342229  0.68210458    -0.80370
O1327       O  0.82042327  0.17575989  0.64851343    -0.80420
O1328       O  0.92756773  0.35705824  0.68923167    -0.80390
O1329       O  0.91222980  0.21518569  0.71367625    -0.80350
O1330       O  0.82762817  0.25449937  0.62101628    -0.80420
Co1331     Co  0.87333756  0.29389300  0.71108527     1.51530
Co1332     Co  0.77690241  0.19215559  0.67051260     1.51690
Co1333     Co  0.83587997  0.29722752  0.65264589     1.51570
Co1334     Co  0.84006202  0.19387714  0.70949810     1.51470
O1335       O  0.84398026  0.24938376  0.67958222    -1.42310
C1336       C  0.94620244  0.25877866  0.71774733     1.09240
C1337       C  0.78404949  0.22207557  0.61408633     1.09330
C1338       C  0.94080082  0.35732115  0.66341116     1.09270
C1339       C  0.82896000  0.14309286  0.65693148     1.09240
O1340       O  0.86453513  0.36661369  0.96980336    -0.80380
O1341       O  0.72769968  0.15662236  0.96145262    -0.80400
O1342       O  0.75557846  0.28620177  0.90671181    -0.80410
O1343       O  0.83288277  0.21102863  0.48529602    -0.80350
O1344       O  0.72231841  0.23306612  0.94083892    -0.80470
O1345       O  0.79865290  0.26053640  0.98386814    -0.80390
O1346       O  0.78014293  0.13112291  0.95262462    -0.80380
O1347       O  0.84845508  0.36333557  0.92468730    -0.80420
C1348       C  0.86256508  0.38861513  0.94762903     1.09310
C1349       C  0.74325298  0.12675974  0.96661752     1.09200
C1350       C  0.72061561  0.26362860  0.92503252     1.09330
C1351       C  0.80756509  0.22985286  0.49681424     1.09210
O1352       O  0.90259461  0.29450463  0.97537073    -0.80380
O1353       O  0.73691815  0.20874456  0.88313342    -0.80460
O1354       O  0.89824349  0.31313224  0.89460580    -0.80390
O1355       O  0.83939677  0.16818654  0.90643882    -0.80370
O1356       O  0.75563507  0.13867588  0.90528424    -0.80420
O1357       O  0.91554318  0.34477752  0.93469532    -0.80390
O1358       O  0.91191953  0.25039235  0.94205845    -0.80350
O1359       O  0.81614739  0.24192138  0.87951064    -0.80420
Co1360     Co  0.84876049  0.30125401  0.95566888     1.51530
Co1361     Co  0.74085969  0.18840382  0.92366358     1.51690
Co1362     Co  0.82862065  0.29655425  0.90297247     1.51570
Co1363     Co  0.84181177  0.19513221  0.94501310     1.51470
O1364       O  0.81657235  0.24134866  0.93137017    -1.42310
C1365       C  0.92862396  0.27755240  0.96335384     1.09240
C1366       C  0.77620769  0.22841991  0.86776077     1.09330
C1367       C  0.93061002  0.34203824  0.91092236     1.09270
C1368       C  0.79494589  0.13661674  0.89754566     1.09240
C1369       C  0.84456054  0.30141528  0.80497426    -0.12510
C1370       C  0.82407890  0.26522036  0.78471028     0.04500
C1371       C  0.77709781  0.22129995  0.79059364    -0.07800
C1372       C  0.75752087  0.21060384  0.81783693    -0.08540
C1373       C  0.78087623  0.24534910  0.83872252    -0.03090
C1374       C  0.82200499  0.29308484  0.83135715     0.03730
N1375       N  0.84207256  0.33329939  0.85068285     0.66230
H1376       H  0.87840117  0.33637953  0.80029097     0.15130
H1377       H  0.72505606  0.17473230  0.82279552     0.14840
N1378       N  0.74746791  0.18884010  0.76893360     0.73940
O1379       O  0.88830070  0.36595509  0.84918292    -0.39510
O1380       O  0.81210532  0.34246455  0.86450666    -0.39460
O1381       O  0.72773872  0.14244851  0.77172462    -0.40160
O1382       O  0.73267838  0.20586149  0.74981722    -0.40230
C1383       C  0.78954635  0.18334538  0.57155530    -0.12510
C1384       C  0.77391763  0.21399418  0.58446000     0.04500
C1385       C  0.76595128  0.24734619  0.56817577    -0.07800
C1386       C  0.77228387  0.24717145  0.53936794    -0.08540
C1387       C  0.79239870  0.21969779  0.52659744    -0.03090
C1388       C  0.80118833  0.18721804  0.54326057     0.03730
N1389       N  0.82781849  0.16278654  0.53323126     0.66230
H1390       H  0.79993802  0.16121776  0.58415663     0.15130
H1391       H  0.76530336  0.27213103  0.52704436     0.14840
N1392       N  0.75616792  0.28462400  0.58021513     0.73940
O1393       O  0.87343117  0.18911418  0.52557907    -0.39510
O1394       O  0.81291919  0.11870502  0.04110596    -0.39460
O1395       O  0.76257444  0.32145336  0.56601163    -0.40160
O1396       O  0.74159063  0.28164310  0.60502077    -0.40230
C1397       C  0.75554557  0.08483649  0.85645911    -0.12510
C1398       C  0.78302848  0.09133810  0.88074809     0.04500
C1399       C  0.77746772  0.04790442  0.89393991    -0.07800
C1400       C  0.74282739  0.00014351  0.88350182    -0.08540
C1401       C  0.71308075  0.99397637  0.86026601    -0.03090
C1402       C  0.72018555  0.03728849  0.84655691     0.03730
N1403       N  0.68785243  0.03387224  0.82442487     0.66230
H1404       H  0.75703531  0.11714733  0.84695873     0.15130
H1405       H  0.73840695  0.96732777  0.89391438     0.14840
N1406       N  0.80403105  0.05136752  0.91893864     0.73940
O1407       O  0.70598757  0.06248226  0.80381072    -0.39510
O1408       O  0.64040118  0.00733281  0.82714699    -0.39460
O1409       O  0.78629413  0.01566591  0.93597372    -0.40160
O1410       O  0.84751484  0.08797211  0.92287421    -0.40230
C1411       C  0.69731826  0.98425091  0.72236672    -0.12510
C1412       C  0.72715143  0.99205037  0.74596504     0.04500
C1413       C  0.76489652  0.04098674  0.75196583    -0.07800
C1414       C  0.76793142  0.08061086  0.73619126    -0.08540
C1415       C  0.73462621  0.07318701  0.71425587    -0.03090
C1416       C  0.69995717  0.02381025  0.70674192     0.03730
N1417       N  0.66443919  0.01276126  0.68498963     0.66230
H1418       H  0.66791667  0.94680773  0.71761153     0.15130
H1419       H  0.79652697  0.11802582  0.74151271     0.14840
N1420       N  0.79854524  0.05148579  0.77468003     0.73940
O1421       O  0.65214085  0.97529621  0.66983653    -0.39510
O1422       O  0.63851245  0.03431618  0.68423449    -0.39460
O1423       O  0.81743732  0.02404440  0.77918374    -0.40160
O1424       O  0.81502957  0.09178228  0.78778800    -0.40230
C1425       C  0.80175123  0.02007473  0.62452229    -0.12510
C1426       C  0.75732230  0.00973044  0.61059442     0.04500
C1427       C  0.74181788  0.04521807  0.60972919    -0.07800
C1428       C  0.76942756  0.08933260  0.62331876    -0.08540
C1429       C  0.81191389  0.09947045  0.63899249    -0.03090
C1430       C  0.82916813  0.06474754  0.63940566     0.03730
N1431       N  0.87309143  0.07368329  0.65464019     0.66230
H1432       H  0.81330752  0.99217038  0.62501085     0.15130
H1433       H  0.75401432  0.11415935  0.62333703     0.14840
N1434       N  0.69625741  0.03629432  0.59664382     0.73940
O1435       O  0.87912119  0.03783185  0.66173413    -0.39510
O1436       O  0.90811681  0.11746579  0.65903971    -0.39460
O1437       O  0.65456001  0.01145999  0.60946892    -0.40160
O1438       O  0.69917455  0.06507853  0.57745778    -0.40230
C1439       C  0.65487649  0.02758321  0.51916768    -0.12510
C1440       C  0.68226147  0.00270437  0.52369578     0.04500
C1441       C  0.73138203  0.02209565  0.51186577    -0.07800
C1442       C  0.74955670  0.06325577  0.49419258    -0.08540
C1443       C  0.72156825  0.08713937  0.48836266    -0.03090
C1444       C  0.67434442  0.07019206  0.50211714     0.03730
N1445       N  0.64534130  0.09477076  0.49882227     0.66230
H1446       H  0.61766868  0.01327116  0.52870038     0.15130
H1447       H  0.78659393  0.07655910  0.98467810     0.14840
N1448       N  0.76462265  0.00268142  0.51815484     0.73940
O1449       O  0.59804315  0.06940980  0.49589556    -0.39510
O1450       O  0.66490733  0.14041938  0.50433251    -0.39460
O1451       O  0.74783767  0.95703608  0.52244490    -0.40160
O1452       O  0.81199968  0.03114673  0.51748673    -0.40230
C1453       C  0.65675421  0.78959445  0.93241905    -0.12510
C1454       C  0.61216706  0.75972948  0.91827249     0.04500
C1455       C  0.56721228  0.72955078  0.93389324    -0.07800
C1456       C  0.56788480  0.73380045  0.96312988    -0.08540
C1457       C  0.61226954  0.76715233  0.97690471    -0.03090
C1458       C  0.65764850  0.79399170  0.96114571     0.03730
N1459       N  0.70488162  0.82879223  0.97328511     0.66230
H1460       H  0.69089128  0.81415889  0.92080011     0.15130
H1461       H  0.53286837  0.71368332  0.97498551     0.14840
N1462       N  0.52005662  0.69820006  0.92056246     0.73940
O1463       O  0.74519756  0.83273973  0.96306246    -0.39510
O1464       O  0.70785421  0.86366842  0.48807389    -0.39460
O1465       O  0.51828642  0.67079726  0.90071092    -0.40160
O1466       O  0.47913906  0.69261457  0.93094583    -0.40230
C1467       C  0.58163347  0.80875736  0.67935773    -0.12510
C1468       C  0.62850937  0.83778084  0.66550658     0.04500
C1469       C  0.67294497  0.85952806  0.68158515    -0.07800
C1470       C  0.67005233  0.85147079  0.70986935    -0.08540
C1471       C  0.62381356  0.82502744  0.72417631    -0.03090
C1472       C  0.57864397  0.80198083  0.70861965     0.03730
N1473       N  0.53020175  0.77087360  0.72178975     0.66230
H1474       H  0.54744979  0.79100249  0.66737475     0.15130
H1475       H  0.70515572  0.87086002  0.72101870     0.14840
N1476       N  0.72147956  0.89482069  0.67025935     0.73940
O1477       O  0.49024522  0.76480255  0.71076652    -0.39510
O1478       O  0.52652194  0.74423959  0.74233709    -0.39460
O1479       O  0.72974251  0.93769595  0.66402481    -0.40160
O1480       O  0.75846181  0.88739352  0.67254975    -0.40230
C1481       C  0.58049315  0.21498077  0.92864655    -0.12510
C1482       C  0.57777375  0.25065125  0.94521881     0.04500
C1483       C  0.62340488  0.29387337  0.95287224    -0.07800
C1484       C  0.67030400  0.30033578  0.94334217    -0.08540
C1485       C  0.67290844  0.26500944  0.92636945    -0.03090
C1486       C  0.62733321  0.22188591  0.91902795     0.03730
N1487       N  0.62802911  0.18493304  0.90140469     0.66230
H1488       H  0.54594079  0.18298206  0.92175936     0.15130
H1489       H  0.70509443  0.33172396  0.95047163     0.14840
N1490       N  0.62277231  0.33098151  0.97072524     0.73940
O1491       O  0.60307388  0.13968351  0.90828736    -0.39510
O1492       O  0.64389058  0.19621762  0.87674319    -0.39460
O1493       O  0.58951164  0.31868334  0.98967925    -0.40160
O1494       O  0.65821216  0.37551570  0.96931358    -0.40230
C1495       C  0.66572555  0.26208589  0.70586343    -0.12510
C1496       C  0.67709223  0.24817987  0.67998158     0.04500
C1497       C  0.64348075  0.24019272  0.65809331    -0.07800
C1498       C  0.60188949  0.24822618  0.66221900    -0.08540
C1499       C  0.58996074  0.26185677  0.68799896    -0.03090
C1500       C  0.62309916  0.26904614  0.71018043     0.03730
N1501       N  0.61328161  0.28110248  0.73748625     0.66230
H1502       H  0.69083201  0.26841387  0.72289473     0.15130
H1503       H  0.57643035  0.24070381  0.64520671     0.14840
N1504       N  0.64780970  0.21937520  0.63224198     0.73940
O1505       O  0.62019075  0.26090692  0.75829535    -0.39510
O1506       O  0.60633019  0.31762987  0.74112103    -0.39460
O1507       O  0.65688815  0.18382511  0.63211929    -0.40160
O1508       O  0.63298290  0.22951531  0.61025147    -0.40230
C1509       C  0.49492840  0.27298072  0.79369585    -0.12510
C1510       C  0.45227523  0.23244868  0.78201524     0.04500
C1511       C  0.40729909  0.20861481  0.79810658    -0.07800
C1512       C  0.40498310  0.22706478  0.82430190    -0.08540
C1513       C  0.44634542  0.26909047  0.83568529    -0.03090
C1514       C  0.49320392  0.29077938  0.82067924     0.03730
N1515       N  0.53900137  0.33043121  0.83213797     0.66230
H1516       H  0.52904748  0.29254657  0.78108711     0.15130
H1517       H  0.37070345  0.20628043  0.83649974     0.14840
N1518       N  0.36325680  0.16559988  0.78787496     0.73940
O1519       O  0.58150883  0.34211637  0.82118113    -0.39510
O1520       O  0.53753808  0.35456989  0.85291789    -0.39460
O1521       O  0.36812786  0.13316959  0.77443326    -0.40160
O1522       O  0.31943603  0.15693066  0.79495982    -0.40230
C1523       C  0.35829974  0.20779207  0.56958165    -0.12510
C1524       C  0.39831527  0.21479422  0.58645824     0.04500
C1525       C  0.44361065  0.22134307  0.57372930    -0.07800
C1526       C  0.45016745  0.22775593  0.54498688    -0.08540
C1527       C  0.41219832  0.22562321  0.52810966    -0.03090
C1528       C  0.36411383  0.21270268  0.54041274     0.03730
N1529       N  0.32178367  0.20710875  0.52454581     0.66230
H1530       H  0.32376592  0.20289080  0.57936434     0.15130
H1531       H  0.48571700  0.23466526  0.53556918     0.14840
N1532       N  0.48409438  0.22351160  0.58980664     0.73940
O1533       O  0.27756928  0.18433398  0.53489696    -0.39510
O1534       O  0.32822392  0.22850934  0.00150478    -0.39460
O1535       O  0.47444603  0.19794274  0.61162023    -0.40160
O1536       O  0.52934430  0.24749874  0.58101419    -0.40230
C1537       C  0.46090798  0.64415453  0.84111096    -0.12510
C1538       C  0.46095503  0.68870357  0.84590422     0.04500
C1539       C  0.41522201  0.68640142  0.85515675    -0.07800
C1540       C  0.37008701  0.63972802  0.85692957    -0.08540
C1541       C  0.37007989  0.59565230  0.84999346    -0.03090
C1542       C  0.41692992  0.59811385  0.84345287     0.03730
N1543       N  0.42070042  0.55417547  0.83871856     0.66230
H1544       H  0.49614632  0.64509575  0.83573827     0.15130
H1545       H  0.33442355  0.63823057  0.86173694     0.14840
N1546       N  0.41289628  0.73066162  0.86071276     0.73940
O1547       O  0.45351645  0.55541824  0.82184371    -0.39510
O1548       O  0.39759283  0.51708017  0.85455886    -0.39460
O1549       O  0.43786078  0.76852591  0.84571619    -0.40160
O1550       O  0.38104463  0.73006104  0.87807130    -0.40230
C1551       C  0.23541368  0.28130916  0.87353410    -0.12510
C1552       C  0.26103566  0.30497102  0.84892525     0.04740
C1553       C  0.29624459  0.29314169  0.83696440    -0.07800
C1554       C  0.30924993  0.26235642  0.85120074    -0.08540
C1555       C  0.28863608  0.24339374  0.87744309    -0.03090
C1556       C  0.24880524  0.25030009  0.88814812     0.03730
N1557       N  0.22263262  0.22710965  0.91371960     0.66230
H1558       H  0.20716577  0.28944172  0.88210812     0.15130
H1559       H  0.33896108  0.25693458  0.84252168     0.14840
N1560       N  0.32012517  0.31314614  0.81065375     0.73940
O1561       O  0.19330913  0.23994994  0.92525037    -0.39510
O1562       O  0.22396788  0.18990861  0.92320503    -0.39460
O1563       O  0.36745826  0.33202376  0.80767827    -0.40160
O1564       O  0.29327484  0.30331716  0.78946736    -0.40230
C1565       C  0.31490653  0.37554305  0.73274377    -0.12510
C1566       C  0.34365838  0.41390687  0.75125956     0.04500
C1567       C  0.39704299  0.43778297  0.74910703    -0.07800
C1568       C  0.41975843  0.42023301  0.72970320    -0.08540
C1569       C  0.39024743  0.37710771  0.71418944    -0.03090
C1570       C  0.33703151  0.35456927  0.71596752     0.03730
N1571       N  0.30458166  0.30630436  0.70478657     0.66230
H1572       H  0.27392745  0.35703087  0.73409290     0.15130
H1573       H  0.46056230  0.43642973  0.72931640     0.14840
N1574       N  0.42843769  0.47486780  0.76856091     0.73940
O1575       O  0.26306866  0.29720964  0.69443721    -0.39510
O1576       O  0.30973210  0.27029170  0.71258998    -0.39460
O1577       O  0.42120107  0.46532676  0.79412826    -0.40160
O1578       O  0.46916515  0.51212537  0.76036396    -0.40230
C1579       C  0.03981337  0.29424154  0.72207142    -0.12510
C1580       C  0.99111837  0.26932086  0.73398774     0.04500
C1581       C  0.98593665  0.26316807  0.76311496    -0.07800
C1582       C  0.02889012  0.28806852  0.77953676    -0.08540
C1583       C  0.07640267  0.32058530  0.76783362    -0.03090
C1584       C  0.08286830  0.31816994  0.73887356     0.03730
N1585       N  0.13223911  0.33427608  0.72697345     0.66230
H1586       H  0.04414788  0.29527906  0.69975318     0.15130
H1587       H  0.02438342  0.28260895  0.80156186     0.14840
N1588       N  0.93713491  0.23490713  0.77652759     0.73940
O1589       O  0.14210287  0.34939711  0.70223473    -0.39510
O1590       O  0.16086811  0.32150025  0.73858503    -0.39460
O1591       O  0.90553603  0.19256094  0.76758210    -0.40160
O1592       O  0.92814607  0.24911830  0.79942399    -0.40230
C1593       C  0.06963490  0.44355980  0.89750041    -0.12510
C1594       C  0.08320420  0.41908928  0.87746447     0.04500
C1595       C  0.04709205  0.36984357  0.87060189    -0.07800
C1596       C  0.00019426  0.34574326  0.88376821    -0.08540
C1597       C  0.98485119  0.37033347  0.90232461    -0.03090
C1598       C  0.02022037  0.42068243  0.90944803     0.03730
N1599       N  0.00676910  0.45052725  0.92681480     0.66230
H1600       H  0.09665695  0.48158218  0.90276645     0.15130
H1601       H  0.97375840  0.30801339  0.87752459     0.14840
N1602       N  0.05330349  0.34648506  0.84676497     0.73940
O1603       O  0.02620541  0.49646793  0.92198917    -0.39510
O1604       O  0.98109069  0.43326192  0.94882385    -0.39460
O1605       O  0.05701960  0.30791205  0.84930113    -0.40160
O1606       O  0.04106463  0.35654562  0.82392332    -0.40230
C1607       C  0.40326402  0.66014747  0.59223102    -0.12510
C1608       C  0.39941551  0.61748559  0.57931754     0.04500
C1609       C  0.44173315  0.62151495  0.56436722    -0.07800
C1610       C  0.48652259  0.66733373  0.56334910    -0.08540
C1611       C  0.48980017  0.70951080  0.57614060    -0.03090
C1612       C  0.44792028  0.70614075  0.59092202     0.03730
N1613       N  0.44996404  0.74812923  0.60503893     0.66230
H1614       H  0.37148628  0.65760510  0.60408254     0.15130
H1615       H  0.51879419  0.67049307  0.55166638     0.14840
N1616       N  0.43968018  0.58057558  0.54923196     0.73940
O1617       O  0.40971992  0.74932910  0.61013949    -0.39510
O1618       O  0.49064069  0.78094978  0.61547758    -0.39460
O1619       O  0.40682923  0.55941485  0.53087383    -0.40160
O1620       O  0.47608364  0.57200232  0.55034502    -0.40230
C1621       C  0.29167872  0.36279775  0.61660701    -0.12510
C1622       C  0.24049486  0.33560285  0.60988702     0.04500
C1623       C  0.21284487  0.28372035  0.61536503    -0.07800
C1624       C  0.23839157  0.26155040  0.62811393    -0.08540
C1625       C  0.29011618  0.28959471  0.63442460    -0.03090
C1626       C  0.31677639  0.34083049  0.62805226     0.03730
N1627       N  0.36972456  0.37190208  0.63292801     0.66230
H1628       H  0.31349216  0.40239932  0.61253672     0.15130
H1629       H  0.21816886  0.22220242  0.63287208     0.14840
N1630       N  0.15985185  0.25344320  0.60910117     0.73940
O1631       O  0.40145753  0.37378839  0.61505775    -0.39510
O1632       O  0.38383284  0.40570085  0.65085922    -0.39460
O1633       O  0.13838428  0.26843914  0.59277570    -0.40160
O1634       O  0.13448984  0.21009997  0.61900858    -0.40230
C1635       C  0.34881678  0.41904357  0.00090765    -0.12510
C1636       C  0.32161155  0.39046086  0.52403603     0.04500
C1637       C  0.32996098  0.35135317  0.53233651    -0.07800
C1638       C  0.36446452  0.34171603  0.51734834    -0.08540
C1639       C  0.38813592  0.36735442  0.99286157    -0.03090
C1640       C  0.38067536  0.40726008  0.98478109     0.03730
N1641       N  0.40553433  0.43654203  0.96051687     0.66230
H1642       H  0.34524908  0.45097314  0.99537880     0.15130
H1643       H  0.36989622  0.31136839  0.52371946     0.14840
N1644       N  0.30047094  0.31819043  0.55431287     0.73940
O1645       O  0.38641487  0.45857024  0.94780723    -0.39510
O1646       O  0.44973148  0.44600848  0.95393083    -0.39460
O1647       O  0.25308298  0.30014039  0.55472553    -0.40160
O1648       O  0.31944198  0.29835524  0.56908894    -0.40230
C1649       C  0.26007119  0.42091133  0.96174297    -0.12510
C1650       C  0.25318716  0.45997706  0.97204895     0.04500
C1651       C  0.25429153  0.49498834  0.95304339    -0.07800
C1652       C  0.25698458  0.48711999  0.92458765    -0.08540
C1653       C  0.26219496  0.44724141  0.91446619    -0.03090
C1654       C  0.26677743  0.41528585  0.93330881     0.03730
N1655       N  0.27751345  0.37704496  0.92413977     0.66230
H1656       H  0.25896084  0.39355612  0.97592855     0.15130
H1657       H  0.25461306  0.51242338  0.91017065     0.14840
N1658       N  0.25074199  0.53744311  0.96200760     0.73940
O1659       O  0.26907098  0.34151612  0.94007870    -0.39510
O1660       O  0.30255413  0.38256660  0.90203197    -0.39460
O1661       O  0.28052096  0.56610006  0.98004696    -0.40160
O1662       O  0.22423201  0.55096832  0.94876068    -0.40230
C1663       C  0.22429239  0.50232359  0.68520589    -0.12510
C1664       C  0.26372699  0.49930720  0.67145554     0.04500
C1665       C  0.29742503  0.49023826  0.68686332    -0.07800
C1666       C  0.28549453  0.47611928  0.71456000    -0.08540
C1667       C  0.24393874  0.47560995  0.72756113    -0.03090
C1668       C  0.21533729  0.49254949  0.71337673     0.03730
N1669       N  0.17805638  0.50094705  0.72717463     0.66230
H1670       H  0.20019450  0.51247603  0.67402338     0.15130
H1671       H  0.30978644  0.46733402  0.72631333     0.14840
N1672       N  0.34403589  0.49639554  0.67525718     0.73940
O1673       O  0.13643991  0.48792301  0.71570397    -0.39510
O1674       O  0.19202837  0.53320759  0.74598423    -0.39460
O1675       O  0.37420472  0.53640387  0.66292525    -0.40160
O1676       O  0.36029602  0.46808513  0.68291018    -0.40230
C1677       C  0.01353758  0.34568154  0.96760685    -0.12510
C1678       C  0.98035051  0.29559800  0.97239612     0.04500
C1679       C  0.99518159  0.26780832  0.98917756    -0.07800
C1680       C  0.04089654  0.29373846  0.50367873    -0.08540
C1681       C  0.07194416  0.34526026  0.50029304    -0.03090
C1682       C  0.06004766  0.37032122  0.48009468     0.03730
N1683       N  0.09402724  0.42121785  0.47270189     0.66230
H1684       H  0.00250960  0.36648969  0.95474872     0.15130
H1685       H  0.05120488  0.27427880  0.51844214     0.14840
N1686       N  0.96422456  0.21473034  0.99252721     0.73940
O1687       O  0.07784811  0.45157758  0.97092184    -0.39510
O1688       O  0.13892484  0.43455420  0.46523260    -0.39460
O1689       O  0.93200579  0.18893912  0.97466564    -0.40160
O1690       O  0.97254824  0.19270781  0.51185215    -0.40230
C1691       C  0.08303689  0.42380120  0.64259057    -0.12510
C1692       C  0.08091029  0.43390722  0.61438425     0.04500
C1693       C  0.03442068  0.42738658  0.60454264    -0.07800
C1694       C  0.99130897  0.40713259  0.62239126    -0.08540
C1695       C  0.99195925  0.39304732  0.65013093    -0.03090
C1696       C  0.03972860  0.40429013  0.66068654     0.03730
N1697       N  0.04551541  0.39594816  0.68925421     0.66230
H1698       H  0.11914204  0.43123927  0.65058808     0.15130
H1699       H  0.95557465  0.39994770  0.61394894     0.14840
N1700       N  0.02965199  0.44104032  0.57672760     0.73940
O1701       O  0.08334487  0.39256151  0.69631462    -0.39510
O1702       O  0.01968316  0.40230982  0.70787689    -0.39460
O1703       O  0.05655582  0.43922927  0.55706852    -0.40160
O1704       O  0.99607594  0.45226209  0.57137010    -0.40230
C1705       C  0.46091258  0.86899109  0.84274934    -0.12510
C1706       C  0.48986678  0.87297750  0.81895632     0.04500
C1707       C  0.46767508  0.86710312  0.79268924    -0.07800
C1708       C  0.41731319  0.85622245  0.79096898    -0.08540
C1709       C  0.38754210  0.84870782  0.81488103    -0.03090
C1710       C  0.40954863  0.85395737  0.84115500     0.03730
N1711       N  0.37994042  0.84153997  0.86640079     0.66230
H1712       H  0.47691651  0.87269600  0.86304253     0.15130
H1713       H  0.40122439  0.85288952  0.77073389     0.14840
N1714       N  0.49443198  0.86933783  0.76759138     0.73940
O1715       O  0.33980843  0.80009912  0.86867478    -0.39510
O1716       O  0.39806271  0.86757866  0.88778412    -0.39460
O1717       O  0.50029198  0.83301468  0.76105034    -0.40160
O1718       O  0.50139143  0.90126973  0.74940236    -0.40230
C1719       C  0.14288512  0.62699375  0.82661880    -0.12510
C1720       C  0.18494569  0.67105461  0.81688936     0.04500
C1721       C  0.22582564  0.66840657  0.80411739    -0.07800
C1722       C  0.22435427  0.62239938  0.80237821    -0.08540
C1723       C  0.18199057  0.57848592  0.81180825    -0.03090
C1724       C  0.14071743  0.58081402  0.82423388     0.03730
N1725       N  0.09776406  0.53759017  0.83602955     0.66230
H1726       H  0.11123291  0.62841819  0.83632634     0.15130
H1727       H  0.25601223  0.62062048  0.79291388     0.14840
N1728       N  0.26741643  0.71110565  0.79127242     0.73940
O1729       O  0.07772555  0.54119084  0.85841032    -0.39510
O1730       O  0.07551284  0.49774986  0.82246245    -0.39460
O1731       O  0.31197261  0.71879205  0.79371842    -0.40160
O1732       O  0.25882837  0.73546226  0.77343514    -0.40230
C1733       C  0.25912699  0.07061462  0.73502928    -0.12510
C1734       C  0.30478825  0.09083815  0.71973986     0.04500
C1735       C  0.33587481  0.06888611  0.72202417    -0.07800
C1736       C  0.32374938  0.03170640  0.74099594    -0.08540
C1737       C  0.27897583  0.01127601  0.75673822    -0.03090
C1738       C  0.24483623  0.02953661  0.75291656     0.03730
N1739       N  0.19588093  0.00678142  0.76626367     0.66230
H1740       H  0.23542658  0.08747060  0.73360404     0.15130
H1741       H  0.35066203  0.01867575  0.74320428     0.14840
N1742       N  0.38385805  0.08801981  0.70786644     0.73940
O1743       O  0.17864590  0.03359583  0.77575463    -0.39510
O1744       O  0.16614595  0.96073809  0.76361609    -0.39460
O1745       O  0.42369225  0.11100406  0.72168654    -0.40160
O1746       O  0.38614662  0.06826565  0.68542286    -0.40230
C1747       C  0.30787359  0.00807027  0.85867547    -0.12510
C1748       C  0.33879989  0.98847001  0.85123727     0.04500
C1749       C  0.39150792  0.01686648  0.85741876    -0.07800
C1750       C  0.41085516  0.06393175  0.87093271    -0.08540
C1751       C  0.37930956  0.08381924  0.87767179    -0.03090
C1752       C  0.32688005  0.05456369  0.87100837     0.03730
N1753       N  0.29155619  0.07184727  0.87585830     0.66230
H1754       H  0.26790879  0.98751470  0.85395789     0.15130
H1755       H  0.45068204  0.08547925  0.87560929     0.14840
N1756       N  0.42568441  0.99865953  0.85070512     0.73940
O1757       O  0.27123370  0.07997462  0.85551695    -0.39510
O1758       O  0.27272927  0.06850765  0.89974213    -0.39460
O1759       O  0.41007769  0.95263728  0.84998298    -0.40160
O1760       O  0.47258700  0.02850422  0.84801092    -0.40230
C1761       C  0.40892500  0.86914443  0.56926669    -0.12510
C1762       C  0.38926197  0.87016576  0.54334789     0.04500
C1763       C  0.41511645  0.86852223  0.51914150    -0.07800
C1764       C  0.45842286  0.86374804  0.52155797    -0.08540
C1765       C  0.47901921  0.86429391  0.54752172    -0.03090
C1766       C  0.45428419  0.86844728  0.57169687     0.03730
N1767       N  0.47606464  0.87594761  0.59862926     0.66230
H1768       H  0.39017585  0.87153513  0.58803371     0.15130
H1769       H  0.47768505  0.86237057  0.50277614     0.14840
N1770       N  0.40083077  0.87583957  0.49218359     0.73940
O1771       O  0.44800787  0.85383244  0.61932448    -0.39510
O1772       O  0.51914945  0.91311456  0.60269805    -0.39460
O1773       O  0.39597649  0.91332705  0.48763437    -0.40160
O1774       O  0.40325791  0.85124013  0.47187940    -0.40230
C1775       C  0.15387929  0.65188732  0.54057320    -0.12510
C1776       C  0.19344296  0.69499297  0.55247692     0.04500
C1777       C  0.23549622  0.69325984  0.56283408    -0.07800
C1778       C  0.23786567  0.64952910  0.56021980    -0.08540
C1779       C  0.19900513  0.60615175  0.54795935    -0.03090
C1780       C  0.15638819  0.60763249  0.53784305     0.03730
N1781       N  0.11701728  0.56615662  0.52350753     0.66230
H1782       H  0.12235453  0.65365448  0.53172609     0.15130
H1783       H  0.27044672  0.64942774  0.56878088     0.14840
N1784       N  0.27586665  0.73532534  0.57647135     0.73940
O1785       O  0.07179443  0.55704642  0.52576622    -0.39510
O1786       O  0.12829992  0.54404777  0.50509268    -0.39460
O1787       O  0.26617880  0.76165391  0.59277388    -0.40160
O1788       O  0.32071157  0.74321832  0.57450854    -0.40230
C1789       C  0.32523457  0.03207319  0.94497641    -0.12510
C1790       C  0.31145402  0.06639152  0.95539610     0.04500
C1791       C  0.28047179  0.05374179  0.97945735    -0.07800
C1792       C  0.26814009  0.00924671  0.49355375    -0.08540
C1793       C  0.28766832  0.97855645  0.98478670    -0.03090
C1794       C  0.31475620  0.98888187  0.95950642     0.03730
N1795       N  0.33412766  0.95774328  0.94903482     0.66230
H1796       H  0.34995922  0.04209280  0.92699925     0.15130
H1797       H  0.24533005  0.99987933  0.51232199     0.14840
N1798       N  0.26460907  0.08699732  0.99090798     0.73940
O1799       O  0.37258734  0.97561243  0.93311962    -0.39510
O1800       O  0.31078231  0.91158865  0.95378648    -0.39460
O1801       O  0.26314729  0.11942389  0.97588434    -0.40160
O1802       O  0.24850743  0.08180828  0.51563929    -0.40230
C1803       C  0.24939090  0.03542237  0.61246379    -0.12510
C1804       C  0.27417044  0.02296311  0.59211899     0.04500
C1805       C  0.32818411  0.04952696  0.59097342    -0.07800
C1806       C  0.35548760  0.08531543  0.61117964    -0.08540
C1807       C  0.33037378  0.09723954  0.63168606    -0.03090
C1808       C  0.27648658  0.07261384  0.63164244     0.03730
N1809       N  0.24806670  0.08344107  0.65163806     0.66230
H1810       H  0.20838995  0.01577929  0.61375585     0.15130
H1811       H  0.39644239  0.10512838  0.61015975     0.14840
N1812       N  0.35615396  0.04088629  0.56958422     0.73940
O1813       O  0.23376399  0.11399978  0.64543131    -0.39510
O1814       O  0.22582555  0.05327818  0.67127905    -0.39460
O1815       O  0.35303105  0.05188964  0.54487443    -0.40160
O1816       O  0.39138767  0.03262927  0.57591138    -0.40230
C1817       C  0.16069272  0.75202852  0.94554897    -0.12510
C1818       C  0.17046095  0.79643646  0.95837708     0.04500
C1819       C  0.18042630  0.83845237  0.94227682    -0.07800
C1820       C  0.18837151  0.83694759  0.91390907    -0.08540
C1821       C  0.18362172  0.79414299  0.90155724    -0.03090
C1822       C  0.16616019  0.74997744  0.91690124     0.03730
N1823       N  0.15622865  0.70407054  0.90404040     0.66230
H1824       H  0.15236354  0.71999185  0.95819434     0.15130
H1825       H  0.19991416  0.86982000  0.90131304     0.14840
N1826       N  0.18453687  0.88306187  0.95417178     0.73940
O1827       O  0.15693935  0.67020608  0.91809068    -0.39510
O1828       O  0.13994090  0.69448040  0.87970459    -0.39460
O1829       O  0.20504680  0.92311347  0.94046093    -0.40160
O1830       O  0.16024095  0.88090417  0.97602549    -0.40230
C1831       C  0.27574095  0.91629784  0.69299661    -0.12510
C1832       C  0.24667545  0.86785295  0.70312422     0.04500
C1833       C  0.22463728  0.82744294  0.68470959    -0.07800
C1834       C  0.23015028  0.83763783  0.65619996    -0.08540
C1835       C  0.25756746  0.88674588  0.64614203    -0.03090
C1836       C  0.28156984  0.92607766  0.66474316     0.03730
N1837       N  0.30621075  0.97641457  0.65557375     0.66230
H1838       H  0.29260902  0.94716140  0.70725784     0.15130
H1839       H  0.21149373  0.80732650  0.64169352     0.14840
N1840       N  0.19496006  0.77690884  0.69433915     0.73940
O1841       O  0.29318799  0.00573667  0.66617446    -0.39510
O1842       O  0.34614329  0.99337549  0.64092148    -0.39460
O1843       O  0.20592874  0.76320691  0.71643536    -0.40160
O1844       O  0.16073138  0.74458386  0.67941191    -0.40230
C1845       C  0.61218512  0.52931079  0.92036543    -0.12510
C1846       C  0.63056297  0.53452870  0.94752327     0.04500
C1847       C  0.60032209  0.49778063  0.96721439    -0.07800
C1848       C  0.55792234  0.45366361  0.95824347    -0.08540
C1849       C  0.54314305  0.44556655  0.93036314    -0.03090
C1850       C  0.56903920  0.48533885  0.91128813     0.03730
N1851       N  0.55530412  0.48112887  0.88253891     0.66230
H1852       H  0.63559776  0.55730947  0.90517642     0.15130
H1853       H  0.53754938  0.42403899  0.97309138     0.14840
N1854       N  0.61494360  0.50247577  0.99574051     0.73940
O1855       O  0.57439698  0.51919751  0.86717182    -0.39510
O1856       O  0.52441865  0.43983880  0.87214059    -0.39460
O1857       O  0.63878135  0.54466268  0.50671039    -0.40160
O1858       O  0.59930467  0.46424531  0.51082442    -0.40230
C1859       C  0.91075812  0.52286046  0.92012442    -0.12510
C1860       C  0.90703674  0.54834352  0.94329345     0.04500
C1861       C  0.89642411  0.52274031  0.96917938    -0.07800
C1862       C  0.88425155  0.47187118  0.97039296    -0.08540
C1863       C  0.88112718  0.44454547  0.94639230    -0.03090
C1864       C  0.89642636  0.47191461  0.92099713     0.03730
N1865       N  0.89592181  0.44854772  0.89530282     0.66230
H1866       H  0.91861801  0.54104434  0.90017784     0.15130
H1867       H  0.87468656  0.45276529  0.99014462     0.14840
N1868       N  0.89447070  0.54716610  0.99420095     0.73940
O1869       O  0.87313440  0.45317345  0.87497301    -0.39510
O1870       O  0.92696125  0.43335863  0.89114545    -0.39460
O1871       O  0.87519238  0.52252142  0.01615505    -0.40160
O1872       O  0.91560603  0.59395870  0.99503587    -0.40230
C1873       C  0.76394464  0.77371624  0.53673345    -0.12510
C1874       C  0.77727658  0.82198090  0.52894825     0.04500
C1875       C  0.81285845  0.84536954  0.50709159    -0.07800
C1876       C  0.82687832  0.81582289  0.99075795    -0.08540
C1877       C  0.80393337  0.76415365  0.99550286    -0.03090
C1878       C  0.77232253  0.74339417  0.51921367     0.03730
N1879       N  0.74254053  0.69093593  0.52418424     0.66230
H1880       H  0.73880139  0.75632563  0.55432840     0.15130
H1881       H  0.85273801  0.83212914  0.97329008     0.14840
N1882       N  0.83289308  0.89715950  0.50051807     0.73940
O1883       O  0.74816179  0.67316326  0.54638743    -0.39510
O1884       O  0.70149694  0.66679839  0.01117018    -0.39460
O1885       O  0.83155744  0.92657422  0.51824120    -0.40160
O1886       O  0.85625690  0.91488839  0.97789437    -0.40230
C1887       C  0.74148418  0.77682461  0.87469887    -0.12510
C1888       C  0.76081311  0.80184332  0.84935396     0.04500
C1889       C  0.79747473  0.79350120  0.83499586    -0.07800
C1890       C  0.81292128  0.76089348  0.84690549    -0.08540
C1891       C  0.78946523  0.73323864  0.87121131    -0.03090
C1892       C  0.75121272  0.73996288  0.88407865     0.03730
N1893       N  0.72097839  0.70849892  0.90671303     0.66230
H1894       H  0.71181646  0.78033739  0.88522892     0.15130
H1895       H  0.84363341  0.75753264  0.83744101     0.14840
N1896       N  0.81920098  0.81709315  0.80874662     0.73940
O1897       O  0.70594442  0.72567949  0.92613282    -0.39510
O1898       O  0.70676965  0.66267126  0.90653577    -0.39460
O1899       O  0.81480721  0.85320893  0.80034213    -0.40160
O1900       O  0.84606040  0.80414407  0.79462164    -0.40230
C1901       C  0.99344274  0.81170073  0.85983145    -0.12510
C1902       C  0.99293418  0.78469855  0.88309763     0.04500
C1903       C  0.03690362  0.78384500  0.89040387    -0.07800
C1904       C  0.07907946  0.80621378  0.87303815    -0.08540
C1905       C  0.07826581  0.82781316  0.84794019    -0.03090
C1906       C  0.03615677  0.83388130  0.84188790     0.03730
N1907       N  0.03443426  0.85873867  0.81712895     0.66230
H1908       H  0.95920371  0.81221841  0.85462189     0.15130
H1909       H  0.11102291  0.80200419  0.87802082     0.14840
N1910       N  0.03811678  0.75715351  0.91428003     0.73940
O1911       O  0.99261362  0.85206725  0.80847823    -0.39510
O1912       O  0.07462578  0.89064434  0.80510354    -0.39460
O1913       O  0.01392435  0.71029078  0.91461376    -0.40160
O1914       O  0.07038810  0.77979738  0.93265124    -0.40230
C1915       C  0.94924896  0.74033216  0.52334803    -0.12510
C1916       C  0.94968132  0.74106068  0.49429166     0.04500
C1917       C  0.99033951  0.78415939  0.98118663    -0.07800
C1918       C  0.03558869  0.81290935  0.99536121    -0.08540
C1919       C  0.03719976  0.80795105  0.52377754    -0.03090
C1920       C  0.99123464  0.77653874  0.53814931     0.03730
N1921       N  0.98636874  0.78420949  0.56717588     0.66230
H1922       H  0.91560183  0.71325024  0.53440625     0.15130
H1923       H  0.06862367  0.84101088  0.98447036     0.14840
N1924       N  0.98241976  0.80617023  0.95718456     0.73940
O1925       O  0.01608050  0.82579546  0.57769307    -0.39510
O1926       O  0.94606025  0.75574275  0.58028194    -0.39460
O1927       O  0.94637004  0.81527735  0.95812081    -0.40160
O1928       O  0.01943748  0.83250989  0.94122043    -0.40230
C1929       C  0.60071101  0.48753919  0.68053276    -0.12510
C1930       C  0.62666164  0.48467109  0.70339897     0.04500
C1931       C  0.62937963  0.44120945  0.70813784    -0.07800
C1932       C  0.61381593  0.40540856  0.68767678    -0.08540
C1933       C  0.58161640  0.40488131  0.66744679    -0.03090
C1934       C  0.57898979  0.44810643  0.66184609     0.03730
N1935       N  0.55055906  0.45005620  0.63883824     0.66230
H1936       H  0.60173859  0.52221456  0.67585221     0.15130
H1937       H  0.61567685  0.37196285  0.69172011     0.14840
N1938       N  0.65351725  0.43631615  0.73216909     0.73940
O1939       O  0.54033789  0.48473940  0.63682681    -0.39510
O1940       O  0.53723555  0.41818511  0.61978496    -0.39460
O1941       O  0.63864121  0.44131050  0.75588731    -0.40160
O1942       O  0.68407387  0.41998227  0.73001096    -0.40230
C1943       C  0.81693960  0.45308257  0.72104884    -0.12510
C1944       C  0.79007395  0.45615945  0.69850505     0.04500
C1945       C  0.76093144  0.41350428  0.68237983    -0.07800
C1946       C  0.76412331  0.37119330  0.68724401    -0.08540
C1947       C  0.79666346  0.37055004  0.70702966    -0.03090
C1948       C  0.82116147  0.41076795  0.72523067     0.03730
N1949       N  0.85475272  0.41130523  0.74580300     0.66230
H1950       H  0.83799362  0.48501317  0.73421675     0.15130
H1951       H  0.74730819  0.34194733  0.67222954     0.14840
N1952       N  0.73387655  0.41393980  0.65851475     0.73940
O1953       O  0.89550332  0.45075496  0.75077443    -0.39510
O1954       O  0.84112444  0.37383664  0.76110340    -0.39460
O1955       O  0.75852957  0.43563170  0.63680276    -0.40160
O1956       O  0.68796985  0.38109986  0.65640623    -0.40230
C1957       C  0.73012020  0.77819743  0.74390211    -0.12510
C1958       C  0.69957578  0.75529528  0.76752137     0.04500
C1959       C  0.70569828  0.71919930  0.78181853    -0.07800
C1960       C  0.74262618  0.70797959  0.77256061    -0.08540
C1961       C  0.77066126  0.72785905  0.74777857    -0.03090
C1962       C  0.76487799  0.76426495  0.73345352     0.03730
N1963       N  0.79270209  0.78668383  0.70831722     0.66230
H1964       H  0.72727483  0.80766221  0.73368574     0.15130
H1965       H  0.74642944  0.67973814  0.78368889     0.14840
N1966       N  0.67523101  0.69362538  0.80578884     0.73940
O1967       O  0.77329701  0.80052073  0.68997647    -0.39510
O1968       O  0.83908088  0.79982633  0.70624208    -0.39460
O1969       O  0.62771497  0.67421081  0.80512153    -0.40160
O1970       O  0.69438483  0.68206343  0.82534598    -0.40230
C1971       C  0.65868023  0.64089787  0.63536722    -0.12510
C1972       C  0.70785972  0.66282700  0.64566636     0.04500
C1973       C  0.74472580  0.71108886  0.63704963    -0.07800
C1974       C  0.73014401  0.73722973  0.61945136    -0.08540
C1975       C  0.68064967  0.71590840  0.60950163    -0.03090
C1976       C  0.64432764  0.66705056  0.61756824     0.03730
N1977       N  0.59263195  0.64422808  0.60899565     0.66230
H1978       H  0.63099921  0.60343445  0.64170057     0.15130
H1979       H  0.75826850  0.77418792  0.61264657     0.14840
N1980       N  0.79724215  0.73307677  0.64453390     0.73940
O1981       O  0.56917724  0.59871168  0.60278777    -0.39510
O1982       O  0.56807289  0.66699734  0.61195409    -0.39460
O1983       O  0.81718772  0.70633507  0.64834878    -0.40160
O1984       O  0.82569602  0.77963026  0.64343985    -0.40230
C1985       C  0.99553199  0.78656123  0.65161377    -0.12510
C1986       C  0.97434844  0.73488027  0.65155314     0.04500
C1987       C  0.00288422  0.71396460  0.63972804    -0.07800
C1988       C  0.04822545  0.74413174  0.62601097    -0.08540
C1989       C  0.06715759  0.79490697  0.62383085    -0.03090
C1990       C  0.04238451  0.81715919  0.63829728     0.03730
N1991       N  0.06420756  0.87018914  0.63985739     0.66230
H1992       H  0.97568777  0.80307332  0.66209103     0.15130
H1993       H  0.06763328  0.72680470  0.61588825     0.14840
N1994       N  0.98871663  0.66266843  0.64235502     0.73940
O1995       O  0.03604943  0.88941402  0.64022336    -0.39510
O1996       O  0.11059018  0.89714076  0.64504765    -0.39460
O1997       O  0.95540271  0.63109054  0.62681239    -0.40160
O1998       O  0.01993835  0.65210989  0.65280487    -0.40230
C1999       C  0.07613198  0.69608324  0.73296404    -0.12510
C2000       C  0.07787372  0.73671071  0.74726866     0.04500
C2001       C  0.03354405  0.74081995  0.74809106    -0.07800
C2002       C  0.99085580  0.70735395  0.73392113    -0.08540
C2003       C  0.98827038  0.66669592  0.71975737    -0.03090
C2004       C  0.03142908  0.66024810  0.71960151     0.03730
N2005       N  0.03002966  0.61691576  0.70770581     0.66230
H2006       H  0.10903221  0.69128946  0.73301555     0.15130
H2007       H  0.95807297  0.71239784  0.73522356     0.14840
N2008       N  0.02866007  0.77537957  0.76579053     0.73940
O2009       O  0.07035774  0.61889658  0.69892721    -0.39510
O2010       O  0.99005746  0.57521476  0.70907288    -0.39460
O2011       O  0.01970345  0.80744076  0.75541161    -0.40160
O2012       O  0.01959797  0.76513507  0.79120503    -0.40230
C2013       C  0.83501991  0.57661370  0.79888743    -0.12510
C2014       C  0.79023104  0.57007005  0.78741386     0.04500
C2015       C  0.74813537  0.55777529  0.80564866    -0.07800
C2016       C  0.75277016  0.55275475  0.83445762    -0.08540
C2017       C  0.79875532  0.56227857  0.84595105    -0.03090
C2018       C  0.84011590  0.57364068  0.82749073     0.03730
N2019       N  0.88893522  0.58566181  0.83748038     0.66230
H2020       H  0.86782115  0.58717924  0.78547488     0.15130
H2021       H  0.72138351  0.54553856  0.84828491     0.14840
N2022       N  0.70239854  0.55515374  0.79612247     0.73940
O2023       O  0.89341394  0.55601725  0.85337035    -0.39510
O2024       O  0.92810351  0.62416541  0.82884099    -0.39460
O2025       O  0.68492705  0.53665328  0.77292761    -0.40160
O2026       O  0.67624837  0.56631487  0.81210780    -0.40230
C2027       C  0.84258192  0.59199955  0.54375311    -0.12510
C2028       C  0.79458759  0.55707001  0.53382411     0.04500
C2029       C  0.76016854  0.52088932  0.55283377    -0.07800
C2030       C  0.77379759  0.52309219  0.58113106    -0.08540
C2031       C  0.82063187  0.56066994  0.59143781    -0.03090
C2032       C  0.85557946  0.59482766  0.57189538     0.03730
N2033       N  0.90137669  0.63709848  0.58065718     0.66230
H2034       H  0.86853103  0.62140181  0.52999708     0.15130
H2035       H  0.74592807  0.49735803  0.59583469     0.14840
N2036       N  0.71045576  0.48379057  0.54425334     0.73940
O2037       O  0.94158192  0.65225275  0.56638366    -0.39510
O2038       O  0.89956690  0.66438623  0.59956019    -0.39460
O2039       O  0.70219776  0.47122512  0.51916937    -0.40160
O2040       O  0.67539691  0.46082311  0.56194260    -0.40230
loop_ 
_geom_bond_atom_site_label_1 
_geom_bond_atom_site_label_2 
_geom_bond_distance 
_geom_bond_site_symmetry_2 
_ccdc_geom_bond_type 
O1            C9   1.292       .  A
O1          Co21   2.108       .  S
O2           C10   1.254       .  A
O2          Co22   1.940       .  S
O3           C11   1.245       .  A
O3          Co23   1.961       .  S
O4           C12   1.271       .  A
O4          Co24   2.021       .  S
O5           C11   1.250       .  A
O5          Co22   1.980       .  S
O6           C12   1.247       .  A
O6          Co21   1.920       .  S
O7           C10   1.276       .  A
O7          Co24   2.035       .  S
O8            C9   1.250       .  A
O8          Co23   1.947       .  S
C9         C1011   1.517       .  S
C10         C941   1.482       .  S
C11         C952   1.458       .  S
C12         C966   1.473       .  S
O13          C26   1.277       .  A
O13         Co21   1.971       .  S
O14          C27   1.267       .  A
O14         Co22   1.930       .  S
O15          C28   1.257       .  A
O15         Co23   1.984       .  S
O16          C29   1.271       .  A
O16         Co24   2.023       .  S
O17          C29   1.267       .  A
O17         Co22   2.018       .  S
O18          C28   1.246       .  A
O18         Co21   1.950       .  S
O19          C26   1.278       .  A
O19         Co24   2.024       .  S
O20          C27   1.269       .  A
O20         Co23   1.983       .  S
Co21         O25   1.985       .  S
Co22         O25   1.965       .  S
Co23         O25   2.136       .  S
Co24         O25   2.133       .  S
C26         C983   1.493       .  S
C27         C910   1.427       .  S
C28         C924   1.464       .  S
C29         C994   1.500       .  S
O30          C38   1.229       .  A
O30         Co50   1.890       .  S
O31          C39   1.235       .  A
O31         Co51   1.913       .  S
O32          C40   1.256       .  A
O32         Co52   1.948       .  S
O33          C41   1.256       .  A
O33         Co53   1.942       .  S
O34          C40   1.283       .  A
O34         Co51   2.057       .  S
O35          C41   1.270       .  A
O35         Co50   2.021       .  S
O36          C39   1.268       .  A
O36         Co53   2.056       .  S
O37          C38   1.278       .  A
O37         Co52   2.126       .  S
C38         C871   1.502       .  S
C39         C826   1.490       .  S
C40         C997   1.504       .  S
C41         C857   1.476       .  S
O42          C55   1.250       .  A
O42         Co50   1.935       .  S
O43          C56   1.237       .  A
O43         Co51   1.892       .  S
O44          C57   1.282       .  A
O44         Co52   1.934       .  S
O45          C58   1.276       .  A
O45         Co53   1.848       .  S
O46          C58   1.334       .  A
O46         Co51   2.207       .  S
O47          C57   1.292       .  A
O47         Co50   1.999       .  S
O48          C55   1.281       .  A
O48         Co53   2.082       .  S
O49          C56   1.287       .  A
O49         Co52   2.103       .  S
Co50         O54   2.042       .  S
Co51         O54   2.073       .  S
Co52         O54   2.022       .  S
Co53         O54   1.919       .  S
C55        C1916   1.513       .  S
C56         C840   1.503       .  S
C57         C882   1.454       .  S
C58        C2028   1.513       .  S
O59          C67   1.267       .  A
O59         Co79   1.865       .  S
O60          C68   1.260       .  A
O60         Co80   2.001       .  S
O61          C69   1.258       .  A
O61         Co81   2.018       .  S
O62          C70   1.267       .  A
O62       Co1102   1.851       .  S
O63          C69   1.231       .  A
O63         Co80   1.922       .  S
O64          C70   1.299       .  A
O64       Co1099   2.103       .  S
O65          C68   1.252       .  A
O65         Co82   2.001       .  S
O66          C67   1.318       .  A
O66         Co81   2.119       .  S
C67         C899   1.479       .  S
C68        C1793   1.477   1_554  S
C69         C784   1.486   1_565  S
C70         C798   1.448       .  S
O71          C84   1.265       .  A
O71         Co79   2.005       .  S
O72          C85   1.268       .  A
O72         Co80   1.995       .  S
O73          C86   1.258       .  A
O73         Co81   1.884       .  S
O74          C87   1.277       .  A
O74         Co82   2.024       .  S
O75          C87   1.261       .  A
O75         Co80   1.945       .  S
O76          C86   1.301       .  A
O76         Co79   2.084       .  S
O77          C84   1.260       .  A
O77         Co82   1.967       .  S
O78          C85   1.256       .  A
O78         Co81   1.976       .  S
Co79       O1084   2.102       .  S
Co79         O83   2.065       .  S
Co80         O83   2.057       .  S
Co81         O83   2.039       .  S
Co82       O1082   1.851   1_554  S
Co82         O83   1.868       .  S
C84         C756   1.483       .  S
C85         C815   1.463       .  S
C86         C969   1.468       .  S
C87         C742   1.483       .  S
O88          C96   1.267       .  A
O88        Co108   1.997       .  S
O89          C97   1.254       .  A
O89        Co109   1.984       .  S
O90          C98   1.283       .  A
O90        Co110   2.023       .  S
O91          C99   1.309       .  A
O91        Co111   2.137       .  S
O92          C98   1.269       .  A
O92        Co109   1.958       .  S
O93          C99   1.276       .  A
O93        Co108   1.873       .  S
O94          C97   1.243       .  A
O94        Co111   1.956       .  S
O95          C96   1.266       .  A
O95        Co110   1.996       .  S
C96         C980   1.500       .  S
C97         C689   1.477       .  S
C98         C812   1.454       .  S
C99         C700   1.488       .  S
O100        C113   1.284       .  A
O100       Co108   2.089       .  S
O101        C114   1.262       .  A
O101       Co109   1.965       .  S
O102        C115   1.265       .  A
O102       Co110   1.975       .  S
O103        C116   1.283       .  A
O103       Co111   1.990       .  S
O104        C116   1.288       .  A
O104       Co109   2.063       .  S
O105        C115   1.277       .  A
O105       Co108   2.014       .  S
O106        C113   1.254       .  A
O106       Co111   1.883       .  S
O107        C114   1.254       .  A
O107       Co110   1.966       .  S
Co108       O112   1.993       .  S
Co109       O112   2.029       .  S
Co110       O112   2.039       .  S
Co111       O112   1.971       .  S
C113        C801   1.444       .  S
C114        C717   1.478   1_565  S
C115        C885   1.471       .  S
C116        C728   1.506       .  S
O117        C125   1.271       .  A
O117       Co137   2.057       .  S
O118        C126   1.258       .  A
O118       Co138   1.996       .  S
O119        C127   1.281       .  A
O119       Co139   2.010       .  S
O120        C128   1.276       .  A
O120      Co1160   2.030       .  S
O121        C127   1.274       .  A
O121       Co138   1.957       .  S
O122       C1148   1.256       .  A
O122       Co137   1.995       .  S
O123        C126   1.297       .  A
O123       Co140   2.089       .  S
O124        C125   1.246       .  A
O124       Co139   1.945       .  S
C125        C759   1.499       .  S
C126        C616   1.500       .  S
C127        C588   1.482       .  S
C128       O1142   1.256       .  A
C128        C630   1.494       .  S
O129        C142   1.277       .  A
O129       Co137   1.935       .  S
O130        C143   1.246       .  A
O130       Co138   1.976       .  S
O131        C144   1.269       .  A
O131       Co139   2.035       .  S
O132        C145   1.265       .  A
O132       Co140   2.017       .  S
O133        C145   1.250       .  A
O133       Co138   1.968       .  S
O134        C144   1.267       .  A
O134       Co137   2.015       .  S
O135        C142   1.285       .  A
O135       Co140   1.989       .  S
O136        C143   1.243       .  A
O136       Co139   1.942       .  S
Co137       O141   2.032       .  S
Co138       O141   2.048       .  S
Co139       O141   2.019       .  S
Co140      O1140   2.030       .  S
Co140       O141   2.075       .  S
C142        C661   1.468       .  S
C143        C644   1.465       .  S
C144        C672   1.510       .  S
C145        C602   1.469       .  S
O146        C154   1.260       .  A
O146       Co166   1.917       .  S
O147        C155   1.260       .  A
O147       Co167   2.004       .  S
O148        C156   1.281       .  A
O148       Co168   2.061       .  S
O149        C157   1.287       .  A
O149       Co169   2.046       .  S
O150        C156   1.257       .  A
O150       Co167   1.950       .  S
O151        C157   1.262       .  A
O151       Co166   1.926       .  S
O152        C155   1.256       .  A
O152       Co169   1.969       .  S
O153        C154   1.284       .  A
O153       Co168   2.079       .  S
C154        C703   1.475       .  S
C155        C546   1.485       .  S
C156        C521   1.488       .  S
C157        C647   1.450       .  S
O158        C171   1.262       .  A
O158       Co166   2.037       .  S
O159        C172   1.273       .  A
O159       Co167   2.039       .  S
O160        C173   1.280       .  A
O160       Co168   1.928       .  S
O161        C174   1.270       .  A
O161       Co169   1.969       .  S
O162        C174   1.283       .  A
O162       Co167   2.027       .  S
O163        C173   1.294       .  A
O163       Co166   2.059       .  S
O164        C171   1.251       .  A
O164       Co169   1.971       .  S
O165        C172   1.258       .  A
O165       Co168   1.959       .  S
Co166       O170   1.997       .  S
Co167       O170   2.022       .  S
Co168       O170   2.030       .  S
Co169       O170   2.022       .  S
C171        C563   1.498       .  S
C172        C633   1.476       .  S
C173        C574   1.494       .  S
C174        C532   1.470       .  S
O175        C183   1.237       .  A
O175       Co195   1.947       .  S
O176        C184   1.277       .  A
O176       Co196   2.046       .  S
O177        C185   1.304       .  A
O177       Co197   2.131       .  S
O178        C186   1.289       .  A
O178       Co198   2.134       .  S
O179        C185   1.272       .  A
O179       Co196   1.946       .  S
O180        C186   1.246       .  A
O180       Co195   1.916       .  S
O181        C184   1.278       .  A
O181       Co198   1.998       .  S
O182        C183   1.248       .  A
O182       Co197   1.938       .  S
C183        C913   1.422       .  S
C184        C787   1.483       .  S
C185        C479   1.527       .  S
C186        C504   1.488       .  S
O187        C200   1.289       .  A
O187       Co195   2.059       .  S
O188        C201   1.266       .  A
O188       Co196   2.094       .  S
O189        C202   1.256       .  A
O189       Co197   1.941       .  S
O190        C203   1.272       .  A
O190       Co198   2.058       .  S
O191        C203   1.232       .  A
O191       Co196   1.937       .  S
O192        C202   1.278       .  A
O192       Co195   2.055       .  S
O193        C200   1.273       .  A
O193       Co198   1.915       .  S
O194        C201   1.230       .  A
O194       Co197   1.926       .  S
Co195       O199   2.100       .  S
Co196       O199   2.083       .  S
Co197       O199   2.028       .  S
Co198       O199   2.007       .  S
C200        C605   1.476       .  S
C201        C490   1.485       .  S
C202        C549   1.475       .  S
C203        C714   1.468       .  S
O204        C212   1.263       .  A
O204       Co224   2.043       .  S
O205        C213   1.310       .  A
O205       Co225   2.187       .  S
O206        C214   1.246       .  A
O206       Co226   1.927       .  S
O207        C215   1.251       .  A
O207       Co227   1.947       .  S
O208        C214   1.274       .  A
O208       Co225   2.037       .  S
O209        C215   1.292       .  A
O209       Co224   2.095       .  S
O210        C213   1.229       .  A
O210       Co227   1.857       .  S
O211        C212   1.243       .  A
O211       Co226   1.948       .  S
C212        C829   1.498       .  S
C213        C731   1.515       .  S
C214        C462   1.476       .  S
C215        C493   1.494       .  S
O216        C229   1.235       .  A
O216       Co224   1.957       .  S
O217       C1250   1.254       .  A
O217       Co225   1.982       .  S
O218        C231   1.282       .  A
O218       Co226   2.061       .  S
O219        C232   1.318       .  A
O219       Co227   2.156       .  S
O220        C232   1.263       .  A
O220       Co225   1.843       .  S
O221        C231   1.260       .  A
O221       Co224   1.954       .  S
O222        C229   1.246       .  A
O222       Co227   2.009       .  S
O223       C1250   1.266       .  A
O223       Co226   2.009       .  S
Co224       O228   2.098       .  S
Co225       O228   2.076       .  S
Co226       O228   2.059       .  S
Co227       O228   2.018       .  S
C229        C535   1.477       .  S
C230       O1237   1.254       .  A
C230       O1243   1.266       .  A
C230        C507   1.490   1_556  S
C231        C619   1.496       .  S
C232        C770   1.476       .  S
O233        C241   1.271       .  A
O233       Co253   1.885       .  S
O234        C242   1.306       .  A
O234       Co254   2.088       .  S
O235        C243   1.272       .  A
O235       Co255   1.991       .  S
O236        C244   1.267       .  A
O236       Co256   2.049       .  S
O237        C243   1.279       .  A
O237       Co254   2.008       .  S
O238        C244   1.249       .  A
O238       Co253   1.939       .  S
O239        C242   1.277       .  A
O239       Co256   1.879       .  S
O240        C241   1.295       .  A
O240       Co255   2.072       .  S
C241        C955   1.471       .  S
C242        C745   1.487       .  S
C243        C448   1.502       .  S
C244        C591   1.459       .  S
O245       C1278   1.279       .  A
O245       Co253   2.049       .  S
O246        C259   1.258       .  A
O246       Co254   1.985       .  S
O247        C260   1.249       .  A
O247       Co255   1.964       .  S
O248        C261   1.248       .  A
O248       Co256   1.936       .  S
O249        C261   1.265       .  A
O249       Co254   2.029       .  S
O250        C260   1.261       .  A
O250       Co253   1.976       .  S
O251       C1278   1.257       .  A
O251       Co256   1.940       .  S
O252        C259   1.250       .  A
O252       Co255   1.957       .  S
Co253       O257   1.940       .  S
Co254       O257   2.151       .  S
Co255       O257   2.080       .  S
Co256       O257   1.905       .  S
C258       O1265   1.279       .  A
C258       O1271   1.257       .  A
C258        C437   1.481       .  S
C259        C406   1.452   1_565  S
C260        C854   1.470       .  S
C261        C420   1.475   1_565  S
O262        C270   1.270       .  A
O262       Co282   1.951       .  S
O263        C271   1.268       .  A
O263       Co283   2.018       .  S
O264        C272   1.314       .  A
O264       Co284   2.052       .  S
O265        C273   1.252       .  A
O265       Co285   1.953       .  S
O266        C272   1.285       .  A
O266       Co283   1.951       .  S
O267        C273   1.265       .  A
O267       Co282   2.042       .  S
O268        C271   1.268       .  A
O268       Co285   2.004       .  S
O269        C270   1.303       .  A
O269       Co284   2.088       .  S
C270        C868   1.506       .  S
C271        C381   1.510       .  S
C272        C392   1.495       .  S
C273        C434   1.487       .  S
O274        C287   1.277       .  A
O274       Co282   1.958       .  S
O275        C288   1.249       .  A
O275       Co283   1.979       .  S
O276        C289   1.290       .  A
O276       Co284   2.056       .  S
O277        C290   1.264       .  A
O277       Co285   1.975       .  S
O278        C290   1.255       .  A
O278       Co283   1.953       .  S
O279        C289   1.272       .  A
O279       Co282   1.977       .  S
O280        C287   1.291       .  A
O280       Co285   2.069       .  S
O281        C288   1.276       .  A
O281       Co284   2.056       .  S
Co282       O286   2.034       .  S
Co283       O286   1.995       .  S
Co284       O286   2.046       .  S
Co285       O286   2.023       .  S
C287        C518   1.494       .  S
C288        C451   1.495       .  S
C289        C938   1.474       .  S
C290        C686   1.483       .  S
O291        C299   1.246       .  A
O291       Co311   1.984       .  S
O292        C300   1.272       .  A
O292       Co312   2.003       .  S
O293        C301   1.285       .  A
O293       Co313   2.084       .  S
O294        C302   1.288       .  A
O294       Co314   2.044       .  S
O295        C301   1.266       .  A
O295       Co312   2.002       .  S
O296        C302   1.288       .  A
O296       Co311   1.908       .  S
O297        C300   1.265       .  A
O297       Co314   1.967       .  S
O298        C299   1.248       .  A
O298       Co313   1.969       .  S
C299        C927   1.452       .  S
C300        C395   1.505       .  S
C301        C476   1.524       .  S
C302        C350   1.488       .  S
O303        C316   1.250       .  A
O303       Co311   1.982       .  S
O304        C317   1.266       .  A
O304       Co312   2.019       .  S
O305        C318   1.266       .  A
O305       Co313   1.949       .  S
O306        C319   1.257       .  A
O306       Co314   2.029       .  S
O307        C319   1.236       .  A
O307       Co312   1.936       .  S
O308        C318   1.303       .  A
O308       Co311   2.104       .  S
O309        C316   1.246       .  A
O309       Co314   1.969       .  S
O310        C317   1.254       .  A
O310       Co313   1.953       .  S
Co311       O315   1.956       .  S
Co312       O315   1.985       .  S
Co313       O315   2.086       .  S
Co314       O315   2.210       .  S
C316        C560   1.479       .  S
C317        C364   1.465       .  S
C318        C675   1.524       .  S
C319        C409   1.468       .  S
O320        C328   1.292       .  A
O320       Co340   1.957       .  S
O321        C329   1.259       .  A
O321       Co341   2.017       .  S
O322        C330   1.280       .  A
O322       Co342   2.086       .  S
O323        C331   1.292       .  A
O323      Co1363   2.050       .  S
O324        C330   1.242       .  A
O324       Co341   1.914       .  S
O325       C1351   1.282       .  A
O325       Co340   1.951       .  S
O326        C329   1.248       .  A
O326       Co343   1.971       .  S
O327        C328   1.305       .  A
O327       Co342   2.123       .  S
C328        C843   1.535       .  S
C329       C1443   1.496       .  S
C330        C465   1.473       .  S
C331       O1345   1.282       .  A
C331        C367   1.490   1_556  S
O332        C345   1.277       .  A
O332       Co340   2.009       .  S
O333        C346   1.265       .  A
O333       Co341   2.085       .  S
O334        C347   1.242       .  A
O334       Co342   1.951       .  S
O335        C348   1.295       .  A
O335       Co343   2.026       .  S
O336        C348   1.278       .  A
O336       Co341   2.005       .  S
O337        C347   1.247       .  A
O337       Co340   2.048       .  S
O338        C345   1.270       .  A
O338       Co343   1.968       .  S
O339        C346   1.222       .  A
O339       Co342   1.911       .  S
Co340       O344   2.000       .  S
Co341       O344   2.102       .  S
Co342       O344   2.082       .  S
Co343      O1343   2.050       .  S
Co343       O344   2.049       .  S
C345        C658   1.460       .  S
C346        C353   1.481       .  S
C347        C577   1.486       .  S
C348        C378   1.501       .  S
C349        C350   1.387       .  A
C349        C354   1.399       .  A
C349        H356   1.083       .  S
C350        C351   1.427       .  A
C351        C352   1.406       .  A
C351        N358   1.430       .  S
C352        C353   1.393       .  A
C352        H357   1.084       .  S
C353        C354   1.427       .  A
C354        N355   1.433       .  S
N355        O359   1.262       .  A
N355        O360   1.261       .  A
N358        O361   1.261       .  A
N358        O362   1.262       .  A
C363        C364   1.395       .  A
C363        C368   1.397       .  A
C363        H370   1.081       .  S
C364        C365   1.418       .  A
C365        C366   1.402       .  A
C365        N372   1.445       .  S
C366        C367   1.406       .  A
C366        H371   1.082       .  S
C367        C368   1.421       .  A
C368        N369   1.433       .  S
N369        O373   1.261       .  A
N369       O1394   1.262       .  A
N372        O375   1.263       .  A
N372        O376   1.258       .  A
O374       N1389   1.262       .  A
C377        C378   1.409       .  A
C377        C382   1.413       .  A
C377        H384   1.084       .  S
C378        C379   1.424       .  A
C379        C380   1.422       .  A
C379        N386   1.441       .  S
C380        C381   1.408   1_545  A
C380        H385   1.083   1_545  S
C381        C382   1.416   1_565  A
C382        N383   1.435       .  S
N383        O387   1.260       .  A
N383        O388   1.263       .  A
N386        O389   1.263       .  A
N386        O390   1.262       .  A
C391        C392   1.415       .  A
C391        C396   1.411   1_565  A
C391        H398   1.084       .  S
C392        C393   1.409   1_565  A
C393        C394   1.412       .  A
C393        N400   1.438       .  S
C394        C395   1.418       .  A
C394        H399   1.083       .  S
C395        C396   1.412       .  A
C396        N397   1.437       .  S
N397        O401   1.263   1_545  A
N397        O402   1.262       .  A
N400        O403   1.262       .  A
N400        O404   1.263       .  A
C405        C406   1.409       .  A
C405        C410   1.413       .  A
C405        H412   1.083   1_545  S
C406        C407   1.396       .  A
C407        C408   1.370       .  A
C407        N414   1.432       .  S
C408        C409   1.406       .  A
C408        H413   1.081       .  S
C409        C410   1.412       .  A
C410        N411   1.440       .  S
N411        O415   1.263       .  A
N411        O416   1.262       .  A
N414        O417   1.262       .  A
N414        O418   1.262       .  A
C419        C420   1.408       .  A
C419        C424   1.411       .  A
C419        H426   1.084       .  S
C420        C421   1.415       .  A
C421        C422   1.399   1_554  A
C421        N428   1.448       .  S
C422        C423   1.410       .  A
C422       H1447   1.083       .  S
C423       C1349   1.496       .  S
C423        C424   1.414   1_556  A
C424        N425   1.434   1_554  S
N425        O429   1.262       .  A
N425        O430   1.262   1_556  A
H427       C1442   1.083       .  S
N428        O431   1.260   1_545  A
N428        O432   1.263       .  A
C433        C434   1.396       .  A
C433        C438   1.394       .  A
C433        H440   1.083       .  S
C434        C435   1.420       .  A
C435        C436   1.418       .  A
C435        N442   1.437       .  S
C436        C437   1.406       .  A
C436        H441   1.084       .  S
C437        C438   1.416       .  A
C438        N439   1.436       .  S
N439        O443   1.262       .  A
N439       O1464   1.261       .  A
N442        O445   1.262       .  A
N442        O446   1.263       .  A
O444       N1459   1.261       .  A
C447        C448   1.411       .  A
C447        C452   1.426       .  A
C447        H454   1.083       .  S
C448        C449   1.420       .  A
C449        C450   1.384       .  A
C449        N456   1.432       .  S
C450        C451   1.398       .  A
C450        H455   1.084       .  S
C451        C452   1.423       .  A
C452        N453   1.438       .  S
N453        O457   1.263       .  A
N453        O458   1.263       .  A
N456        O459   1.261       .  A
N456        O460   1.262       .  A
C461        C462   1.396       .  A
C461        C466   1.402       .  A
C461        H468   1.084       .  S
C462        C463   1.424       .  A
C463        C464   1.407       .  A
C463        N470   1.441       .  S
C464        C465   1.397       .  A
C464        H469   1.084       .  S
C465        C466   1.418       .  A
C466        N467   1.431       .  S
N467        O471   1.262       .  A
N467        O472   1.262       .  A
N470        O473   1.263       .  A
N470        O474   1.263       .  A
C475        C476   1.412       .  A
C475        C480   1.428       .  A
C475        H482   1.083       .  S
C476        C477   1.419       .  A
C477        C478   1.416       .  A
C477        N484   1.436       .  S
C478        C479   1.411       .  A
C478        H483   1.084       .  S
C479        C480   1.426       .  A
C480        N481   1.435       .  S
N481        O485   1.262       .  A
N481        O486   1.261       .  A
N484        O487   1.262       .  A
N484        O488   1.263       .  A
C489        C490   1.409       .  A
C489        C494   1.423       .  A
C489        H496   1.083       .  S
C490        C491   1.409       .  A
C491        C492   1.401       .  A
C491        N498   1.437       .  S
C492        C493   1.406       .  A
C492        H497   1.079       .  S
C493        C494   1.423       .  A
C494        N495   1.443       .  S
N495        O499   1.263       .  A
N495        O500   1.262       .  A
N498        O501   1.261       .  A
N498        O502   1.263       .  A
C503        C504   1.403       .  A
C503        C508   1.417       .  A
C503        H510   1.083       .  S
C504        C505   1.418       .  A
C505        C506   1.401       .  A
C505        N512   1.442       .  S
C506        C507   1.402       .  A
C506        H511   1.084       .  S
C507        C508   1.429       .  A
C508        N509   1.447       .  S
N509        O513   1.263       .  A
N509       O1534   1.261       .  A
N512        O515   1.262       .  A
N512        O516   1.263       .  A
O514       N1529   1.261       .  A
C517        C518   1.398       .  A
C517        C522   1.394       .  A
C517        H524   1.084       .  S
C518        C519   1.421       .  A
C519        C520   1.419       .  A
C519        N526   1.432       .  S
C520        C521   1.404       .  A
C520        H525   1.083       .  S
C521        C522   1.419       .  A
C522        N523   1.439       .  S
N523        O527   1.263       .  A
N523        O528   1.261       .  A
N526        O529   1.259       .  A
N526        O530   1.263       .  A
C531        C532   1.403       .  A
C531        C536   1.413       .  A
C531        H538   1.083       .  S
C532        C533   1.407       .  A
C533        C534   1.390       .  A
C533        N540   1.434       .  S
C534        C535   1.400       .  A
C534        H539   1.075       .  S
C535        C536   1.419       .  A
C536        N537   1.443       .  S
N537        O541   1.263       .  A
N537        O542   1.263       .  A
N540        O543   1.263       .  A
N540        O544   1.261       .  A
C545        C546   1.402       .  A
C545        C550   1.392       .  A
C545        H552   1.084       .  S
C546        C547   1.414       .  A
C547        C548   1.412       .  A
C547        N554   1.432       .  S
C548        C549   1.407       .  A
C548        H553   1.084       .  S
C549        C550   1.411       .  A
C550        N551   1.432       .  S
N551        O555   1.263       .  A
N551        O556   1.262       .  A
N554        O557   1.262       .  A
N554        O558   1.262       .  A
C559        C560   1.400   1_455  A
C559        C564   1.413       .  A
C559        H566   1.083       .  S
C560        C561   1.417       .  A
C561        C562   1.402   1_655  A
C561        N568   1.439       .  S
C562        C563   1.399       .  A
C562        H567   1.074       .  S
C563        C564   1.416       .  A
C564        N565   1.436       .  S
N565        O569   1.262       .  A
N565        O570   1.263       .  A
N568        O571   1.262       .  A
N568        O572   1.263       .  A
C573        C574   1.403       .  A
C573        C578   1.418       .  A
C573        H580   1.083       .  S
C574        C575   1.411       .  A
C575        C576   1.383       .  A
C575        N582   1.416       .  S
C576        C577   1.390   1_455  A
C576        H581   1.085   1_455  S
C577        C578   1.433   1_655  A
C578        N579   1.442       .  S
N579        O583   1.263       .  A
N579        O584   1.260   1_455  A
N582        O585   1.262       .  A
N582        O586   1.261       .  A
C587        C588   1.411       .  A
C587        C592   1.400       .  A
C587        H594   1.083       .  S
C588        C589   1.414       .  A
C589        C590   1.398       .  A
C589        N596   1.435       .  S
C590        C591   1.401       .  A
C590        H595   1.085       .  S
C591        C592   1.407       .  A
C592        N593   1.440       .  S
N593        O597   1.263       .  A
N593        O598   1.261       .  A
N596        O599   1.263       .  A
N596        O600   1.263       .  A
C601        C602   1.399       .  A
C601        C606   1.374       .  A
C601        H608   1.084       .  S
C602        C603   1.421       .  A
C603        C604   1.417       .  A
C603        N610   1.445       .  S
C604        C605   1.409       .  A
C604        H609   1.083       .  S
C605        C606   1.412       .  A
C606        N607   1.433       .  S
N607        O611   1.262       .  A
N607        O612   1.261       .  A
N610        O613   1.261       .  A
N610        O614   1.263       .  A
C615        C620   1.414       .  A
C615       C1636   1.403       .  A
C615        H622   1.083       .  S
C616        C617   1.417       .  A
C616       C1635   1.403       .  A
C617        C618   1.412       .  A
C617        N624   1.432       .  S
C618       C1639   1.400   1_554  A
C618        H623   1.080       .  S
C619        C620   1.422       .  A
C619       C1638   1.400       .  A
C620        N621   1.438       .  S
N621        O625   1.263       .  A
N621        O626   1.260       .  A
N624        O627   1.262       .  A
N624        O628   1.263       .  A
C629        C630   1.413       .  A
C629        C634   1.408       .  A
C629        H636   1.081       .  S
C630        C631   1.413       .  A
C631        C632   1.403       .  A
C631        N638   1.436       .  S
C632        C633   1.405       .  A
C632        H637   1.082       .  S
C633        C634   1.408       .  A
C634        N635   1.442       .  S
N635        O639   1.263       .  A
N635        O640   1.262       .  A
N638        O641   1.262       .  A
N638        O642   1.263       .  A
C643        C644   1.403       .  A
C643        C648   1.389       .  A
C643        H650   1.084       .  S
C644        C645   1.415       .  A
C645        C646   1.395       .  A
C645        N652   1.437       .  S
C646        C647   1.394       .  A
C646        H651   1.077       .  S
C647        C648   1.408       .  A
C648        N649   1.435       .  S
N649        O653   1.262       .  A
N649        O654   1.261       .  A
N652        O655   1.263       .  A
N652        O656   1.262       .  A
C657        C658   1.387   1_455  A
C657       C1682   1.379       .  A
C657        H664   1.069       .  S
C658        C659   1.418       .  A
C659       C1680   1.412   1_655  A
C659        N666   1.442       .  S
C660        C661   1.404       .  A
C660       C1679   1.412   1_454  A
C660        H665   1.083       .  S
C661        C662   1.410   1_554  A
C662       C1677   1.379       .  A
C662        N663   1.435       .  S
N663        O668   1.261       .  A
N663       O1687   1.262       .  A
N666        O669   1.262       .  A
N666       O1690   1.263       .  A
O667       N1683   1.262       .  A
O670       N1686   1.263   1_554  A
C671        C672   1.411       .  A
C671        C676   1.428       .  A
C671        H678   1.083       .  S
C672        C673   1.418       .  A
C673        C674   1.416   1_455  A
C673        N680   1.443       .  S
C674        C675   1.416       .  A
C674        H679   1.084       .  S
C675        C676   1.421   1_655  A
C676        N677   1.437       .  S
N677        O681   1.260       .  A
N677        O682   1.261       .  A
N680        O683   1.261       .  A
N680        O684   1.263   1_455  A
C685        C686   1.403       .  A
C685        C690   1.396       .  A
C685        H692   1.084       .  S
C686        C687   1.418       .  A
C687        C688   1.400       .  A
C687        N694   1.430       .  S
C688        C689   1.401       .  A
C688        H693   1.084       .  S
C689        C690   1.418       .  A
C690        N691   1.438       .  S
N691        O695   1.263       .  A
N691        O696   1.263       .  A
N694        O697   1.261       .  A
N694        O698   1.262       .  A
C699        C700   1.405       .  A
C699        C704   1.404       .  A
C699        H706   1.083       .  S
C700        C701   1.416       .  A
C701        C702   1.406       .  A
C701        N708   1.434       .  S
C702        C703   1.402       .  A
C702        H707   1.084       .  S
C703        C704   1.415       .  A
C704        N705   1.439       .  S
N705        O709   1.263       .  A
N705        O710   1.262       .  A
N708        O711   1.263       .  A
N708        O712   1.262       .  A
C713        C714   1.404       .  A
C713        C718   1.417       .  A
C713        H720   1.083       .  S
C714        C715   1.418       .  A
C715        C716   1.372       .  A
C715        N722   1.435       .  S
C716        C717   1.395       .  A
C716        H721   1.085       .  S
C717        C718   1.423       .  A
C718        N719   1.435       .  S
N719        O723   1.262       .  A
N719        O724   1.262   1_545  A
N722        O725   1.262       .  A
N722        O726   1.260       .  A
C727        C728   1.391   1_545  A
C727        C732   1.394       .  A
C727        H734   1.085   1_545  S
C728        C729   1.432   1_565  A
C729        C730   1.433       .  A
C729        N736   1.439   1_545  S
C730        C731   1.407       .  A
C730        H735   1.083       .  S
C731        C732   1.433       .  A
C732        N733   1.434       .  S
N733        O737   1.262       .  A
N733        O738   1.260       .  A
N736        O739   1.261       .  A
N736        O740   1.263   1_565  A
C741        C742   1.406       .  A
C741        C746   1.398       .  A
C741        H748   1.084       .  S
C742        C743   1.412       .  A
C743        C744   1.404       .  A
C743        N750   1.436   1_554  S
C744        C745   1.410       .  A
C744        H749   1.083       .  S
C745        C746   1.417       .  A
C746        N747   1.437       .  S
N747        O751   1.263       .  A
N747        O752   1.263       .  A
N750        O753   1.263       .  A
N750        O754   1.262       .  A
C755        C756   1.410       .  A
C755        C760   1.416       .  A
C755        H762   1.084       .  S
C756        C757   1.409       .  A
C757        C758   1.397       .  A
C757        N764   1.441       .  S
C758        C759   1.414       .  A
C758        H763   1.083       .  S
C759        C760   1.416       .  A
C760        N761   1.436       .  S
N761        O765   1.263       .  A
N761        O766   1.262       .  A
N764        O767   1.263       .  A
N764        O768   1.263       .  A
C769        C770   1.410       .  A
C769        C774   1.402   1_545  A
C769        H776   1.079       .  S
C770        C771   1.411       .  A
C771       C1792   1.412       .  A
C771        N778   1.441       .  S
C772       C1791   1.412       .  A
C772       C1793   1.408   1_545  A
C772        H777   1.081   1_546  S
C773       C1088   1.477       .  S
C773        C774   1.407       .  A
C773       C1792   1.408   1_565  A
C774        N775   1.442       .  S
N775        O779   1.263       .  A
N775        O780   1.262       .  A
N778        O781   1.262       .  A
N778       O1802   1.263       .  A
O782       N1798   1.263   1_554  A
C783        C784   1.393       .  A
C783        C788   1.394       .  A
C783        H790   1.084       .  S
C784        C785   1.427       .  A
C785        C786   1.407       .  A
C785        N792   1.433       .  S
C786        C787   1.396       .  A
C786        H791   1.082       .  S
C787        C788   1.425       .  A
C788        N789   1.430       .  S
N789        O793   1.262       .  A
N789        O794   1.262       .  A
N792        O795   1.262       .  A
N792        O796   1.262       .  A
C797        C798   1.399       .  A
C797        C802   1.396       .  A
C797        H804   1.084       .  S
C798        C799   1.416       .  A
C799        C800   1.392       .  A
C799        N806   1.442       .  S
C800        C801   1.393       .  A
C800        H805   1.085       .  S
C801        C802   1.408       .  A
C802        N803   1.439       .  S
N803        O807   1.263       .  A
N803        O808   1.261       .  A
N806        O809   1.263       .  A
N806        O810   1.260       .  A
C811        C812   1.397       .  A
C811        C816   1.389       .  A
C811        H818   1.083       .  S
C812        C813   1.410       .  A
C813        C814   1.404       .  A
C813        N820   1.441       .  S
C814        C815   1.408       .  A
C814        H819   1.084       .  S
C815        C816   1.399       .  A
C816        N817   1.424       .  S
N817        O821   1.260   1_565  A
N817        O822   1.262       .  A
N820        O823   1.262       .  A
N820        O824   1.263       .  A
C825        C826   1.414       .  A
C825        C830   1.419       .  A
C825        H832   1.083       .  S
C826        C827   1.411       .  A
C827        C828   1.410       .  A
C827        N834   1.441       .  S
C828        C829   1.410       .  A
C828        H833   1.081       .  S
C829        C830   1.419       .  A
C830        N831   1.445       .  S
N831        O835   1.263       .  A
N831        O836   1.262       .  A
N834       O1857   1.262       .  A
N834       O1858   1.263       .  A
O837       N1854   1.262   1_554  A
O838       N1854   1.263   1_554  A
C839        C840   1.401       .  A
C839        C844   1.415       .  A
C839        H846   1.081       .  S
C840        C841   1.429       .  A
C841        C842   1.431       .  A
C841        N848   1.439       .  S
C842        C843   1.409       .  A
C842        H847   1.083       .  S
C843        C844   1.429       .  A
C844        N845   1.430       .  S
N845        O849   1.262       .  A
N845        O850   1.259       .  A
N848        O851   1.263       .  A
N848        O852   1.262       .  A
C853        C854   1.394       .  A
C853        C858   1.373       .  A
C853        H860   1.082       .  S
C854        C855   1.414       .  A
C855       C1876   1.421   1_554  A
C855        N862   1.441       .  S
C856        C857   1.412       .  A
C856       C1875   1.421       .  A
C856        H861   1.083       .  S
C857       C1878   1.415       .  A
C858       C1877   1.415   1_554  A
C858        N859   1.434       .  S
N859        O863   1.262       .  A
N859       O1884   1.264       .  A
N862        O865   1.262       .  A
N862       O1886   1.263   1_554  A
O864       N1879   1.264       .  A
O866       N1882   1.263       .  A
C867        C868   1.407       .  A
C867        C872   1.395       .  A
C867        H874   1.079       .  S
C868        C869   1.430       .  A
C869        C870   1.436       .  A
C869        N876   1.442       .  S
C870        C871   1.413       .  A
C870        H875   1.083       .  S
C871        C872   1.413       .  A
C872        N873   1.442       .  S
N873        O877   1.262       .  A
N873        O878   1.263       .  A
N876        O879   1.262       .  A
N876        O880   1.263       .  A
C881        C882   1.401       .  A
C881        C886   1.411   1_655  A
C881        H888   1.084       .  S
C882        C883   1.403   1_655  A
C883        C884   1.384       .  A
C883        N890   1.436       .  S
C884        C885   1.396       .  A
C884        H889   1.072       .  S
C885        C886   1.420       .  A
C886        N887   1.443       .  S
N887        O891   1.263   1_455  A
N887        O892   1.262       .  A
N890        O893   1.261       .  A
N890        O894   1.260       .  A
C895        C896   1.405   1_554  A
C895        C900   1.417       .  A
C895        H902   1.082       .  S
C896       C1075   1.513       .  S
C896       C1917   1.432       .  A
C897        C898   1.404   1_655  A
C897       C1916   1.432       .  A
C897        N904   1.433       .  S
C898       C1919   1.387       .  A
C898        H903   1.078       .  S
C899        C900   1.417   1_455  A
C899       C1918   1.387   1_554  A
C900        N901   1.439       .  S
N901        O905   1.262   1_655  A
N901        O906   1.260       .  A
N904        O907   1.261       .  A
N904        O908   1.262   1_655  A
C909        C910   1.399       .  A
C909        C914   1.398       .  A
C909        H916   1.085       .  S
C910        C911   1.410       .  A
C911        C912   1.385       .  A
C911        N918   1.434       .  S
C912        C913   1.392       .  A
C912        H917   1.085       .  S
C913        C914   1.409       .  A
C914        N915   1.442       .  S
N915        O919   1.263       .  A
N915        O920   1.263       .  A
N918        O921   1.261       .  A
N918        O922   1.262       .  A
C923        C924   1.406       .  A
C923        C928   1.396       .  A
C923        H930   1.084       .  S
C924        C925   1.412       .  A
C925        C926   1.384       .  A
C925        N932   1.434       .  S
C926        C927   1.397       .  A
C926        H931   1.076       .  S
C927        C928   1.405       .  A
C928        N929   1.434       .  S
N929        O933   1.263       .  A
N929        O934   1.260       .  A
N932        O935   1.262       .  A
N932        O936   1.262       .  A
C937        C938   1.409       .  A
C937        C942   1.410       .  A
C937        H944   1.082       .  S
C938        C939   1.409       .  A
C939        C940   1.396       .  A
C939        N946   1.439       .  S
C940        C941   1.411       .  A
C940        H945   1.085       .  S
C941        C942   1.412       .  A
C942        N943   1.436       .  S
N943        O947   1.263       .  A
N943        O948   1.262       .  A
N946        O949   1.262       .  A
N946        O950   1.263       .  A
C951        C952   1.402       .  A
C951        C956   1.401       .  A
C951        H958   1.084       .  S
C952        C953   1.412       .  A
C953        C954   1.399       .  A
C953        N960   1.445       .  S
C954        C955   1.405       .  A
C954        H959   1.084       .  S
C955        C956   1.413       .  A
C956        N957   1.437       .  S
N957        O961   1.263       .  A
N957        O962   1.262       .  A
N960        O963   1.262       .  A
N960        O964   1.263       .  A
C965        C966   1.399       .  A
C965        C970   1.406   1_655  A
C965        H972   1.083       .  S
C966        C967   1.426   1_655  A
C967        C968   1.382       .  A
C967        N974   1.432   1_455  S
C968        C969   1.386       .  A
C968        H973   1.084       .  S
C969        C970   1.422       .  A
C970        N971   1.437       .  S
N971        O975   1.263       .  A
N971        O976   1.263       .  A
N974        O977   1.260       .  A
N974        O978   1.262   1_655  A
C979        C980   1.411       .  A
C979        C984   1.424       .  A
C979        H986   1.082       .  S
C980        C981   1.416       .  A
C981        C982   1.386   1_455  A
C981        N988   1.429       .  S
C982        C983   1.398       .  A
C982        H987   1.084       .  S
C983        C984   1.423   1_655  A
C984        N985   1.439       .  S
N985        O989   1.263       .  A
N985        O990   1.262   1_455  A
N988        O991   1.262       .  A
N988        O992   1.261       .  A
C993        C994   1.400       .  A
C993        C998   1.403       .  A
C993       H1000   1.085       .  S
C994        C995   1.428       .  A
C995        C996   1.420       .  A
C995       N1002   1.438       .  S
C996        C997   1.404       .  A
C996       H1001   1.083       .  S
C997        C998   1.423       .  A
C998        N999   1.434       .  S
N999       O1003   1.261       .  A
N999       O1004   1.263       .  A
N1002      O1005   1.258       .  A
N1002      O1006   1.263       .  A
C1007      C1008   1.410       .  A
C1007      C1012   1.414       .  A
C1007      H1014   1.081       .  S
C1008      C1078   1.513       .  S
C1008      C1009   1.417       .  A
C1009      C1010   1.428       .  A
C1009      N1016   1.441       .  S
C1010      C1011   1.418       .  A
C1010      H1015   1.083       .  S
C1011      C1012   1.414       .  A
C1012      N1013   1.430       .  S
N1013      O1017   1.263       .  A
N1013      O1018   1.260       .  A
N1016      O1019   1.263       .  A
N1016      O1020   1.263       .  A
O1021      C1029   1.292       .  A
O1021     Co1041   2.108       .  S
O1022      C1030   1.254       .  A
O1022     Co1042   1.939       .  S
O1023      C1031   1.245       .  A
O1023     Co1043   1.961       .  S
O1024      C1032   1.271       .  A
O1024     Co1044   2.021       .  S
O1025      C1031   1.250       .  A
O1025     Co1042   1.980       .  S
O1026      C1032   1.247       .  A
O1026     Co1041   1.920       .  S
O1027      C1030   1.276       .  A
O1027     Co1044   2.035       .  S
O1028      C1029   1.250       .  A
O1028     Co1043   1.947       .  S
C1029      C2031   1.517       .  S
C1030      C1961   1.482       .  S
C1031      C1972   1.458       .  S
C1032      C1986   1.473       .  S
O1033      C1046   1.277       .  A
O1033     Co1041   1.971       .  S
O1034      C1047   1.267       .  A
O1034     Co1042   1.930       .  S
O1035      C1048   1.257       .  A
O1035     Co1043   1.984       .  S
O1036      C1049   1.271       .  A
O1036     Co1044   2.023       .  S
O1037      C1049   1.267       .  A
O1037     Co1042   2.018       .  S
O1038      C1048   1.246       .  A
O1038     Co1041   1.950       .  S
O1039      C1046   1.278       .  A
O1039     Co1044   2.024       .  S
O1040      C1047   1.269       .  A
O1040     Co1043   1.983       .  S
Co1041     O1045   1.985       .  S
Co1042     O1045   1.965       .  S
Co1043     O1045   2.136       .  S
Co1044     O1045   2.133       .  S
C1046      C2003   1.493       .  S
C1047      C1930   1.427       .  S
C1048      C1944   1.464       .  S
C1049      C2014   1.500       .  S
O1050      C1058   1.229       .  A
O1050     Co1070   1.889       .  S
O1051      C1059   1.235       .  A
O1051     Co1071   1.913       .  S
O1052      C1060   1.256       .  A
O1052     Co1072   1.948       .  S
O1053      C1061   1.256       .  A
O1053     Co1073   1.942       .  S
O1054      C1060   1.283       .  A
O1054     Co1071   2.057       .  S
O1055      C1061   1.270       .  A
O1055     Co1070   2.022       .  S
O1056      C1059   1.268       .  A
O1056     Co1073   2.057       .  S
O1057      C1058   1.278       .  A
O1057     Co1072   2.126       .  S
C1058      C1891   1.501       .  S
C1059      C1846   1.490       .  S
C1060      C2017   1.505       .  S
C1061      C1877   1.476       .  S
O1062      C1075   1.250       .  A
O1062     Co1070   1.935       .  S
O1063      C1076   1.237       .  A
O1063     Co1071   1.892       .  S
O1064      C1077   1.282       .  A
O1064     Co1072   1.934       .  S
O1065      C1078   1.276       .  A
O1065     Co1073   1.847   1_554  S
O1066      C1078   1.334   1_556  A
O1066     Co1071   2.207       .  S
O1067      C1077   1.292       .  A
O1067     Co1070   1.998       .  S
O1068      C1075   1.281       .  A
O1068     Co1073   2.082       .  S
O1069      C1076   1.287       .  A
O1069     Co1072   2.104       .  S
Co1070     O1074   2.042       .  S
Co1071     O1074   2.073       .  S
Co1072     O1074   2.022       .  S
Co1073     O1074   1.919       .  S
C1076      C1860   1.503       .  S
C1077      C1902   1.454       .  S
O1079      C1087   1.267       .  A
O1079     Co1099   1.865       .  S
O1080      C1088   1.260       .  A
O1080     Co1100   2.001       .  S
O1081      C1089   1.258       .  A
O1081     Co1101   2.018       .  S
O1082      C1090   1.267       .  A
O1083      C1089   1.231       .  A
O1083     Co1100   1.922       .  S
O1084      C1090   1.299   1_554  A
O1085      C1088   1.252       .  A
O1085     Co1102   2.001       .  S
O1086      C1087   1.318       .  A
O1086     Co1101   2.119       .  S
C1087      C1919   1.479       .  S
C1089      C1804   1.486   1_565  S
C1090      C1818   1.448       .  S
O1091      C1104   1.265       .  A
O1091     Co1099   2.005       .  S
O1092      C1105   1.268       .  A
O1092     Co1100   1.995       .  S
O1093      C1106   1.258       .  A
O1093     Co1101   1.884       .  S
O1094      C1107   1.277       .  A
O1094     Co1102   2.024       .  S
O1095      C1107   1.261       .  A
O1095     Co1100   1.945       .  S
O1096      C1106   1.301       .  A
O1096     Co1099   2.085       .  S
O1097      C1104   1.260       .  A
O1097     Co1102   1.967       .  S
O1098      C1105   1.256       .  A
O1098     Co1101   1.976       .  S
Co1099     O1103   2.065       .  S
Co1100     O1103   2.057       .  S
Co1101     O1103   2.039       .  S
Co1102     O1103   1.868       .  S
C1104      C1776   1.483       .  S
C1105      C1835   1.463       .  S
C1106      C1989   1.468       .  S
C1107      C1762   1.483       .  S
O1108      C1116   1.267       .  A
O1108     Co1128   1.997       .  S
O1109      C1117   1.254       .  A
O1109     Co1129   1.984       .  S
O1110      C1118   1.283       .  A
O1110     Co1130   2.023       .  S
O1111      C1119   1.309       .  A
O1111     Co1131   2.137       .  S
O1112      C1118   1.269       .  A
O1112     Co1129   1.958       .  S
O1113      C1119   1.276       .  A
O1113     Co1128   1.873       .  S
O1114      C1117   1.243       .  A
O1114     Co1131   1.956       .  S
O1115      C1116   1.266       .  A
O1115     Co1130   1.997       .  S
C1116      C2000   1.500       .  S
C1117      C1709   1.477       .  S
C1118      C1832   1.454       .  S
C1119      C1720   1.488       .  S
O1120      C1133   1.284       .  A
O1120     Co1128   2.089       .  S
O1121      C1134   1.262       .  A
O1121     Co1129   1.965       .  S
O1122      C1135   1.265       .  A
O1122     Co1130   1.975       .  S
O1123      C1136   1.283       .  A
O1123     Co1131   1.990       .  S
O1124      C1136   1.288       .  A
O1124     Co1129   2.063       .  S
O1125      C1135   1.277       .  A
O1125     Co1128   2.014       .  S
O1126      C1133   1.254       .  A
O1126     Co1131   1.883       .  S
O1127      C1134   1.254       .  A
O1127     Co1130   1.966       .  S
Co1128     O1132   1.993       .  S
Co1129     O1132   2.029       .  S
Co1130     O1132   2.039       .  S
Co1131     O1132   1.971       .  S
C1133      C1821   1.444       .  S
C1134      C1737   1.478   1_565  S
C1135      C1905   1.471       .  S
C1136      C1748   1.506       .  S
O1137      C1145   1.270       .  A
O1137     Co1157   2.056       .  S
O1138      C1146   1.258       .  A
O1138     Co1158   1.996       .  S
O1139      C1147   1.281       .  A
O1139     Co1159   2.010       .  S
O1140      C1148   1.276       .  A
O1141      C1147   1.274       .  A
O1141     Co1158   1.957       .  S
O1142     Co1157   1.995       .  S
O1143      C1146   1.297       .  A
O1143     Co1160   2.089       .  S
O1144      C1145   1.246       .  A
O1144     Co1159   1.945       .  S
C1145      C1779   1.499       .  S
C1146      C1636   1.500       .  S
C1147      C1608   1.482       .  S
C1148      C1650   1.494   1_554  S
O1149      C1162   1.277       .  A
O1149     Co1157   1.935       .  S
O1150      C1163   1.246       .  A
O1150     Co1158   1.976       .  S
O1151      C1164   1.269       .  A
O1151     Co1159   2.035       .  S
O1152      C1165   1.265       .  A
O1152     Co1160   2.017       .  S
O1153      C1165   1.250       .  A
O1153     Co1158   1.968       .  S
O1154      C1164   1.267       .  A
O1154     Co1157   2.015       .  S
O1155      C1162   1.285       .  A
O1155     Co1160   1.989       .  S
O1156      C1163   1.243       .  A
O1156     Co1159   1.942       .  S
Co1157     O1161   2.032       .  S
Co1158     O1161   2.048       .  S
Co1159     O1161   2.019       .  S
Co1160     O1161   2.075       .  S
C1162      C1681   1.468       .  S
C1163      C1664   1.465       .  S
C1164      C1692   1.510       .  S
C1165      C1622   1.469       .  S
O1166      C1174   1.260       .  A
O1166     Co1186   1.917       .  S
O1167      C1175   1.260       .  A
O1167     Co1187   2.004       .  S
O1168      C1176   1.281       .  A
O1168     Co1188   2.061       .  S
O1169      C1177   1.287       .  A
O1169     Co1189   2.046       .  S
O1170      C1176   1.256       .  A
O1170     Co1187   1.950       .  S
O1171      C1177   1.262       .  A
O1171     Co1186   1.926       .  S
O1172      C1175   1.256       .  A
O1172     Co1189   1.969       .  S
O1173      C1174   1.284       .  A
O1173     Co1188   2.079       .  S
C1174      C1723   1.475       .  S
C1175      C1566   1.485       .  S
C1176      C1541   1.487       .  S
C1177      C1667   1.450       .  S
O1178      C1191   1.262       .  A
O1178     Co1186   2.037       .  S
O1179      C1192   1.273       .  A
O1179     Co1187   2.039       .  S
O1180      C1193   1.280       .  A
O1180     Co1188   1.928       .  S
O1181      C1194   1.270       .  A
O1181     Co1189   1.969       .  S
O1182      C1194   1.282       .  A
O1182     Co1187   2.027       .  S
O1183      C1193   1.294       .  A
O1183     Co1186   2.059       .  S
O1184      C1191   1.251       .  A
O1184     Co1189   1.971       .  S
O1185      C1192   1.258       .  A
O1185     Co1188   1.959       .  S
Co1186     O1190   1.997       .  S
Co1187     O1190   2.022       .  S
Co1188     O1190   2.030       .  S
Co1189     O1190   2.022       .  S
C1191      C1583   1.498       .  S
C1192      C1653   1.476       .  S
C1193      C1594   1.494       .  S
C1194      C1552   1.470       .  S
O1195      C1203   1.237       .  A
O1195     Co1215   1.947       .  S
O1196      C1204   1.277       .  A
O1196     Co1216   2.046       .  S
O1197      C1205   1.304       .  A
O1197     Co1217   2.132       .  S
O1198      C1206   1.289       .  A
O1198     Co1218   2.134       .  S
O1199      C1205   1.272       .  A
O1199     Co1216   1.946       .  S
O1200      C1206   1.246       .  A
O1200     Co1215   1.916       .  S
O1201      C1204   1.278       .  A
O1201     Co1218   1.998       .  S
O1202      C1203   1.248       .  A
O1202     Co1217   1.938       .  S
C1203      C1933   1.422       .  S
C1204      C1807   1.483       .  S
C1205      C1499   1.527       .  S
C1206      C1524   1.488       .  S
O1207      C1220   1.289       .  A
O1207     Co1215   2.059       .  S
O1208      C1221   1.266       .  A
O1208     Co1216   2.094       .  S
O1209      C1222   1.256       .  A
O1209     Co1217   1.941       .  S
O1210      C1223   1.272       .  A
O1210     Co1218   2.058       .  S
O1211      C1223   1.232       .  A
O1211     Co1216   1.937       .  S
O1212      C1222   1.278       .  A
O1212     Co1215   2.055       .  S
O1213      C1220   1.273       .  A
O1213     Co1218   1.916       .  S
O1214      C1221   1.230       .  A
O1214     Co1217   1.926       .  S
Co1215     O1219   2.100       .  S
Co1216     O1219   2.083       .  S
Co1217     O1219   2.028       .  S
Co1218     O1219   2.007       .  S
C1220      C1625   1.476       .  S
C1221      C1510   1.485       .  S
C1222      C1569   1.475       .  S
C1223      C1734   1.468       .  S
O1224      C1232   1.263       .  A
O1224     Co1244   2.043       .  S
O1225      C1233   1.310       .  A
O1225     Co1245   2.187       .  S
O1226      C1234   1.246       .  A
O1226     Co1246   1.927       .  S
O1227      C1235   1.251       .  A
O1227     Co1247   1.947       .  S
O1228      C1234   1.274       .  A
O1228     Co1245   2.037       .  S
O1229      C1235   1.292       .  A
O1229     Co1244   2.095       .  S
O1230      C1233   1.229       .  A
O1230     Co1247   1.857       .  S
O1231      C1232   1.243       .  A
O1231     Co1246   1.948       .  S
C1232      C1849   1.498       .  S
C1233      C1751   1.515       .  S
C1234      C1482   1.476       .  S
C1235      C1513   1.494       .  S
O1236      C1249   1.235       .  A
O1236     Co1244   1.957       .  S
O1237     Co1245   1.982       .  S
O1238      C1251   1.282       .  A
O1238     Co1246   2.061       .  S
O1239      C1252   1.318       .  A
O1239     Co1247   2.156       .  S
O1240      C1252   1.262       .  A
O1240     Co1245   1.843       .  S
O1241      C1251   1.260       .  A
O1241     Co1244   1.954       .  S
O1242      C1249   1.246       .  A
O1242     Co1247   2.009       .  S
O1243     Co1246   2.009       .  S
Co1244     O1248   2.098       .  S
Co1245     O1248   2.076       .  S
Co1246     O1248   2.059       .  S
Co1247     O1248   2.018       .  S
C1249      C1555   1.477       .  S
C1250      C1527   1.490       .  S
C1251      C1639   1.496       .  S
C1252      C1790   1.476       .  S
O1253      C1261   1.271       .  A
O1253     Co1273   1.885       .  S
O1254      C1262   1.306       .  A
O1254     Co1274   2.088       .  S
O1255      C1263   1.272       .  A
O1255     Co1275   1.991       .  S
O1256      C1264   1.267       .  A
O1256     Co1276   2.049       .  S
O1257      C1263   1.279       .  A
O1257     Co1274   2.008       .  S
O1258      C1264   1.249       .  A
O1258     Co1273   1.939       .  S
O1259      C1262   1.277       .  A
O1259     Co1276   1.879       .  S
O1260      C1261   1.295       .  A
O1260     Co1275   2.072       .  S
C1261      C1975   1.471       .  S
C1262      C1765   1.487       .  S
C1263      C1468   1.502       .  S
C1264      C1611   1.459       .  S
O1265     Co1273   2.049       .  S
O1266      C1279   1.258       .  A
O1266     Co1274   1.985       .  S
O1267      C1280   1.249       .  A
O1267     Co1275   1.964       .  S
O1268      C1281   1.248       .  A
O1268     Co1276   1.936       .  S
O1269      C1281   1.265       .  A
O1269     Co1274   2.029       .  S
O1270      C1280   1.260       .  A
O1270     Co1273   1.976       .  S
O1271     Co1276   1.940       .  S
O1272      C1279   1.250       .  A
O1272     Co1275   1.957       .  S
Co1273     O1277   1.940       .  S
Co1274     O1277   2.151       .  S
Co1275     O1277   2.080       .  S
Co1276     O1277   1.905       .  S
C1278      C1457   1.481   1_554  S
C1279      C1426   1.452   1_565  S
C1280      C1874   1.470       .  S
C1281      C1440   1.475   1_565  S
O1282      C1290   1.270       .  A
O1282     Co1302   1.951       .  S
O1283      C1291   1.268       .  A
O1283     Co1303   2.018       .  S
O1284      C1292   1.314       .  A
O1284     Co1304   2.052       .  S
O1285      C1293   1.252       .  A
O1285     Co1305   1.953       .  S
O1286      C1292   1.285       .  A
O1286     Co1303   1.951       .  S
O1287      C1293   1.265       .  A
O1287     Co1302   2.042       .  S
O1288      C1291   1.268       .  A
O1288     Co1305   2.004       .  S
O1289      C1290   1.303       .  A
O1289     Co1304   2.087       .  S
C1290      C1888   1.506       .  S
C1291      C1401   1.510       .  S
C1292      C1412   1.495       .  S
C1293      C1454   1.487       .  S
O1294      C1307   1.277       .  A
O1294     Co1302   1.957       .  S
O1295      C1308   1.249       .  A
O1295     Co1303   1.979       .  S
O1296      C1309   1.290       .  A
O1296     Co1304   2.056       .  S
O1297      C1310   1.264       .  A
O1297     Co1305   1.975       .  S
O1298      C1310   1.255       .  A
O1298     Co1303   1.953       .  S
O1299      C1309   1.272       .  A
O1299     Co1302   1.977       .  S
O1300      C1307   1.291       .  A
O1300     Co1305   2.068       .  S
O1301      C1308   1.276       .  A
O1301     Co1304   2.056       .  S
Co1302     O1306   2.035       .  S
Co1303     O1306   1.995       .  S
Co1304     O1306   2.046       .  S
Co1305     O1306   2.023       .  S
C1307      C1538   1.494       .  S
C1308      C1471   1.495       .  S
C1309      C1958   1.474       .  S
C1310      C1706   1.483       .  S
O1311      C1319   1.246       .  A
O1311     Co1331   1.984       .  S
O1312      C1320   1.272       .  A
O1312     Co1332   2.003       .  S
O1313      C1321   1.285       .  A
O1313     Co1333   2.084       .  S
O1314      C1322   1.288       .  A
O1314     Co1334   2.044       .  S
O1315      C1321   1.266       .  A
O1315     Co1332   2.002       .  S
O1316      C1322   1.288       .  A
O1316     Co1331   1.908       .  S
O1317      C1320   1.265       .  A
O1317     Co1334   1.967       .  S
O1318      C1319   1.248       .  A
O1318     Co1333   1.969       .  S
C1319      C1947   1.452       .  S
C1320      C1415   1.505       .  S
C1321      C1496   1.524       .  S
C1322      C1370   1.488       .  S
O1323      C1336   1.250       .  A
O1323     Co1331   1.982       .  S
O1324      C1337   1.266       .  A
O1324     Co1332   2.019       .  S
O1325      C1338   1.266       .  A
O1325     Co1333   1.949       .  S
O1326      C1339   1.257       .  A
O1326     Co1334   2.029       .  S
O1327      C1339   1.236       .  A
O1327     Co1332   1.936       .  S
O1328      C1338   1.303       .  A
O1328     Co1331   2.104       .  S
O1329      C1336   1.246       .  A
O1329     Co1334   1.969       .  S
O1330      C1337   1.254       .  A
O1330     Co1333   1.953       .  S
Co1331     O1335   1.956       .  S
Co1332     O1335   1.985       .  S
Co1333     O1335   2.086       .  S
Co1334     O1335   2.210       .  S
C1336      C1580   1.479       .  S
C1337      C1384   1.465       .  S
C1338      C1695   1.524       .  S
C1339      C1429   1.469       .  S
O1340      C1348   1.292       .  A
O1340     Co1360   1.957       .  S
O1341      C1349   1.259       .  A
O1341     Co1361   2.017       .  S
O1342      C1350   1.280       .  A
O1342     Co1362   2.086       .  S
O1343      C1351   1.292       .  A
O1344      C1350   1.242       .  A
O1344     Co1361   1.914       .  S
O1345     Co1360   1.951       .  S
O1346      C1349   1.248       .  A
O1346     Co1363   1.971       .  S
O1347      C1348   1.305       .  A
O1347     Co1362   2.123       .  S
C1348      C1863   1.535       .  S
C1350      C1485   1.473       .  S
C1351      C1387   1.490       .  S
O1352      C1365   1.277       .  A
O1352     Co1360   2.009       .  S
O1353      C1366   1.265       .  A
O1353     Co1361   2.085       .  S
O1354      C1367   1.242       .  A
O1354     Co1362   1.951       .  S
O1355      C1368   1.295       .  A
O1355     Co1363   2.026       .  S
O1356      C1368   1.278       .  A
O1356     Co1361   2.005       .  S
O1357      C1367   1.247       .  A
O1357     Co1360   2.048       .  S
O1358      C1365   1.270       .  A
O1358     Co1363   1.968       .  S
O1359      C1366   1.222       .  A
O1359     Co1362   1.911       .  S
Co1360     O1364   2.000       .  S
Co1361     O1364   2.102       .  S
Co1362     O1364   2.081       .  S
Co1363     O1364   2.049       .  S
C1365      C1678   1.460       .  S
C1366      C1373   1.481       .  S
C1367      C1597   1.486       .  S
C1368      C1398   1.501       .  S
C1369      C1370   1.387       .  A
C1369      C1374   1.399       .  A
C1369      H1376   1.083       .  S
C1370      C1371   1.427       .  A
C1371      C1372   1.406       .  A
C1371      N1378   1.430       .  S
C1372      C1373   1.393       .  A
C1372      H1377   1.084       .  S
C1373      C1374   1.427       .  A
C1374      N1375   1.433       .  S
N1375      O1379   1.262       .  A
N1375      O1380   1.261       .  A
N1378      O1381   1.261       .  A
N1378      O1382   1.262       .  A
C1383      C1384   1.395       .  A
C1383      C1388   1.397       .  A
C1383      H1390   1.081       .  S
C1384      C1385   1.418       .  A
C1385      C1386   1.402       .  A
C1385      N1392   1.445       .  S
C1386      C1387   1.406       .  A
C1386      H1391   1.082       .  S
C1387      C1388   1.421       .  A
C1388      N1389   1.433       .  S
N1389      O1393   1.261       .  A
N1392      O1395   1.263       .  A
N1392      O1396   1.258       .  A
C1397      C1398   1.409       .  A
C1397      C1402   1.413       .  A
C1397      H1404   1.084       .  S
C1398      C1399   1.424       .  A
C1399      C1400   1.422       .  A
C1399      N1406   1.441       .  S
C1400      C1401   1.408   1_545  A
C1400      H1405   1.083   1_545  S
C1401      C1402   1.416   1_565  A
C1402      N1403   1.435       .  S
N1403      O1407   1.260       .  A
N1403      O1408   1.263       .  A
N1406      O1409   1.263       .  A
N1406      O1410   1.262       .  A
C1411      C1412   1.415       .  A
C1411      C1416   1.411   1_565  A
C1411      H1418   1.084       .  S
C1412      C1413   1.409   1_565  A
C1413      C1414   1.412       .  A
C1413      N1420   1.438       .  S
C1414      C1415   1.418       .  A
C1414      H1419   1.083       .  S
C1415      C1416   1.412       .  A
C1416      N1417   1.437       .  S
N1417      O1421   1.263   1_545  A
N1417      O1422   1.262       .  A
N1420      O1423   1.262       .  A
N1420      O1424   1.263       .  A
C1425      C1426   1.409       .  A
C1425      C1430   1.413       .  A
C1425      H1432   1.083   1_545  S
C1426      C1427   1.396       .  A
C1427      C1428   1.370       .  A
C1427      N1434   1.432       .  S
C1428      C1429   1.406       .  A
C1428      H1433   1.081       .  S
C1429      C1430   1.412       .  A
C1430      N1431   1.440       .  S
N1431      O1435   1.263       .  A
N1431      O1436   1.262       .  A
N1434      O1437   1.262       .  A
N1434      O1438   1.262       .  A
C1439      C1440   1.408       .  A
C1439      C1444   1.412       .  A
C1439      H1446   1.084       .  S
C1440      C1441   1.415       .  A
C1441      C1442   1.399       .  A
C1441      N1448   1.447       .  S
C1442      C1443   1.410       .  A
C1443      C1444   1.415       .  A
C1444      N1445   1.434       .  S
N1445      O1449   1.262       .  A
N1445      O1450   1.262       .  A
N1448      O1451   1.260   1_545  A
N1448      O1452   1.263       .  A
C1453      C1454   1.396       .  A
C1453      C1458   1.394       .  A
C1453      H1460   1.083       .  S
C1454      C1455   1.420       .  A
C1455      C1456   1.418       .  A
C1455      N1462   1.437       .  S
C1456      C1457   1.407       .  A
C1456      H1461   1.084       .  S
C1457      C1458   1.416       .  A
C1458      N1459   1.436       .  S
N1459      O1463   1.262       .  A
N1462      O1465   1.262       .  A
N1462      O1466   1.263       .  A
C1467      C1468   1.411       .  A
C1467      C1472   1.426       .  A
C1467      H1474   1.083       .  S
C1468      C1469   1.420       .  A
C1469      C1470   1.385       .  A
C1469      N1476   1.432       .  S
C1470      C1471   1.398       .  A
C1470      H1475   1.084       .  S
C1471      C1472   1.423       .  A
C1472      N1473   1.438       .  S
N1473      O1477   1.263       .  A
N1473      O1478   1.263       .  A
N1476      O1479   1.261       .  A
N1476      O1480   1.262       .  A
C1481      C1482   1.396       .  A
C1481      C1486   1.402       .  A
C1481      H1488   1.084       .  S
C1482      C1483   1.424       .  A
C1483      C1484   1.407       .  A
C1483      N1490   1.441       .  S
C1484      C1485   1.397       .  A
C1484      H1489   1.084       .  S
C1485      C1486   1.418       .  A
C1486      N1487   1.431       .  S
N1487      O1491   1.262       .  A
N1487      O1492   1.262       .  A
N1490      O1493   1.263       .  A
N1490      O1494   1.263       .  A
C1495      C1496   1.412       .  A
C1495      C1500   1.428       .  A
C1495      H1502   1.083       .  S
C1496      C1497   1.419       .  A
C1497      C1498   1.416       .  A
C1497      N1504   1.436       .  S
C1498      C1499   1.411       .  A
C1498      H1503   1.084       .  S
C1499      C1500   1.426       .  A
C1500      N1501   1.435       .  S
N1501      O1505   1.262       .  A
N1501      O1506   1.261       .  A
N1504      O1507   1.262       .  A
N1504      O1508   1.263       .  A
C1509      C1510   1.409       .  A
C1509      C1514   1.423       .  A
C1509      H1516   1.083       .  S
C1510      C1511   1.409       .  A
C1511      C1512   1.401       .  A
C1511      N1518   1.437       .  S
C1512      C1513   1.406       .  A
C1512      H1517   1.079       .  S
C1513      C1514   1.423       .  A
C1514      N1515   1.443       .  S
N1515      O1519   1.263       .  A
N1515      O1520   1.262       .  A
N1518      O1521   1.261       .  A
N1518      O1522   1.263       .  A
C1523      C1524   1.403       .  A
C1523      C1528   1.417       .  A
C1523      H1530   1.083       .  S
C1524      C1525   1.418       .  A
C1525      C1526   1.401       .  A
C1525      N1532   1.442       .  S
C1526      C1527   1.402       .  A
C1526      H1531   1.084       .  S
C1527      C1528   1.429       .  A
C1528      N1529   1.447       .  S
N1529      O1533   1.263       .  A
N1532      O1535   1.262       .  A
N1532      O1536   1.263       .  A
C1537      C1538   1.398       .  A
C1537      C1542   1.394       .  A
C1537      H1544   1.084       .  S
C1538      C1539   1.421       .  A
C1539      C1540   1.419       .  A
C1539      N1546   1.432       .  S
C1540      C1541   1.404       .  A
C1540      H1545   1.083       .  S
C1541      C1542   1.419       .  A
C1542      N1543   1.439       .  S
N1543      O1547   1.263       .  A
N1543      O1548   1.261       .  A
N1546      O1549   1.259       .  A
N1546      O1550   1.263       .  A
C1551      C1552   1.403       .  A
C1551      C1556   1.413       .  A
C1551      H1558   1.083       .  S
C1552      C1553   1.407       .  A
C1553      C1554   1.390       .  A
C1553      N1560   1.434       .  S
C1554      C1555   1.400       .  A
C1554      H1559   1.075       .  S
C1555      C1556   1.419       .  A
C1556      N1557   1.443       .  S
N1557      O1561   1.263       .  A
N1557      O1562   1.263       .  A
N1560      O1563   1.263       .  A
N1560      O1564   1.261       .  A
C1565      C1566   1.402       .  A
C1565      C1570   1.392       .  A
C1565      H1572   1.084       .  S
C1566      C1567   1.414       .  A
C1567      C1568   1.412       .  A
C1567      N1574   1.432       .  S
C1568      C1569   1.407       .  A
C1568      H1573   1.084       .  S
C1569      C1570   1.411       .  A
C1570      N1571   1.432       .  S
N1571      O1575   1.263       .  A
N1571      O1576   1.262       .  A
N1574      O1577   1.262       .  A
N1574      O1578   1.262       .  A
C1579      C1580   1.400   1_455  A
C1579      C1584   1.413       .  A
C1579      H1586   1.083       .  S
C1580      C1581   1.417       .  A
C1581      C1582   1.402   1_655  A
C1581      N1588   1.439       .  S
C1582      C1583   1.399       .  A
C1582      H1587   1.074       .  S
C1583      C1584   1.416       .  A
C1584      N1585   1.436       .  S
N1585      O1589   1.262       .  A
N1585      O1590   1.263       .  A
N1588      O1591   1.262       .  A
N1588      O1592   1.263       .  A
C1593      C1594   1.403       .  A
C1593      C1598   1.418       .  A
C1593      H1600   1.083       .  S
C1594      C1595   1.411       .  A
C1595      C1596   1.383       .  A
C1595      N1602   1.416       .  S
C1596      C1597   1.390   1_455  A
C1596      H1601   1.085   1_455  S
C1597      C1598   1.433   1_655  A
C1598      N1599   1.442       .  S
N1599      O1603   1.263       .  A
N1599      O1604   1.260   1_455  A
N1602      O1605   1.262       .  A
N1602      O1606   1.261       .  A
C1607      C1608   1.411       .  A
C1607      C1612   1.400       .  A
C1607      H1614   1.083       .  S
C1608      C1609   1.414       .  A
C1609      C1610   1.398       .  A
C1609      N1616   1.435       .  S
C1610      C1611   1.401       .  A
C1610      H1615   1.085       .  S
C1611      C1612   1.406       .  A
C1612      N1613   1.440       .  S
N1613      O1617   1.263       .  A
N1613      O1618   1.261       .  A
N1616      O1619   1.263       .  A
N1616      O1620   1.263       .  A
C1621      C1622   1.399       .  A
C1621      C1626   1.374       .  A
C1621      H1628   1.084       .  S
C1622      C1623   1.421       .  A
C1623      C1624   1.417       .  A
C1623      N1630   1.445       .  S
C1624      C1625   1.409       .  A
C1624      H1629   1.083       .  S
C1625      C1626   1.412       .  A
C1626      N1627   1.433       .  S
N1627      O1631   1.262       .  A
N1627      O1632   1.261       .  A
N1630      O1633   1.261       .  A
N1630      O1634   1.263       .  A
C1635      C1640   1.414   1_554  A
C1635      H1642   1.083   1_554  S
C1636      C1637   1.417       .  A
C1637      C1638   1.412       .  A
C1637      N1644   1.432       .  S
C1638      H1643   1.080       .  S
C1639      C1640   1.422       .  A
C1640      N1641   1.438       .  S
N1641      O1645   1.263       .  A
N1641      O1646   1.260       .  A
N1644      O1647   1.262       .  A
N1644      O1648   1.263       .  A
C1649      C1650   1.413       .  A
C1649      C1654   1.408       .  A
C1649      H1656   1.081       .  S
C1650      C1651   1.413       .  A
C1651      C1652   1.403       .  A
C1651      N1658   1.436       .  S
C1652      C1653   1.405       .  A
C1652      H1657   1.082       .  S
C1653      C1654   1.408       .  A
C1654      N1655   1.442       .  S
N1655      O1659   1.263       .  A
N1655      O1660   1.262       .  A
N1658      O1661   1.262       .  A
N1658      O1662   1.263       .  A
C1663      C1664   1.403       .  A
C1663      C1668   1.389       .  A
C1663      H1670   1.084       .  S
C1664      C1665   1.415       .  A
C1665      C1666   1.395       .  A
C1665      N1672   1.437       .  S
C1666      C1667   1.394       .  A
C1666      H1671   1.077       .  S
C1667      C1668   1.408       .  A
C1668      N1669   1.435       .  S
N1669      O1673   1.262       .  A
N1669      O1674   1.261       .  A
N1672      O1675   1.263       .  A
N1672      O1676   1.262       .  A
C1677      C1678   1.387   1_455  A
C1677      H1684   1.069       .  S
C1678      C1679   1.418       .  A
C1679      N1686   1.442       .  S
C1680      C1681   1.404       .  A
C1680      H1685   1.083       .  S
C1681      C1682   1.410       .  A
C1682      N1683   1.435       .  S
N1683      O1688   1.261       .  A
N1686      O1689   1.262       .  A
C1691      C1692   1.411       .  A
C1691      C1696   1.428       .  A
C1691      H1698   1.083       .  S
C1692      C1693   1.418       .  A
C1693      C1694   1.416   1_455  A
C1693      N1700   1.443       .  S
C1694      C1695   1.416       .  A
C1694      H1699   1.084       .  S
C1695      C1696   1.421   1_655  A
C1696      N1697   1.437       .  S
N1697      O1701   1.260       .  A
N1697      O1702   1.261       .  A
N1700      O1703   1.261       .  A
N1700      O1704   1.263   1_455  A
C1705      C1706   1.403       .  A
C1705      C1710   1.396       .  A
C1705      H1712   1.084       .  S
C1706      C1707   1.418       .  A
C1707      C1708   1.400       .  A
C1707      N1714   1.430       .  S
C1708      C1709   1.401       .  A
C1708      H1713   1.084       .  S
C1709      C1710   1.418       .  A
C1710      N1711   1.438       .  S
N1711      O1715   1.263       .  A
N1711      O1716   1.263       .  A
N1714      O1717   1.261       .  A
N1714      O1718   1.262       .  A
C1719      C1720   1.405       .  A
C1719      C1724   1.404       .  A
C1719      H1726   1.083       .  S
C1720      C1721   1.416       .  A
C1721      C1722   1.406       .  A
C1721      N1728   1.434       .  S
C1722      C1723   1.402       .  A
C1722      H1727   1.084       .  S
C1723      C1724   1.415       .  A
C1724      N1725   1.439       .  S
N1725      O1729   1.263       .  A
N1725      O1730   1.262       .  A
N1728      O1731   1.263       .  A
N1728      O1732   1.262       .  A
C1733      C1734   1.404       .  A
C1733      C1738   1.417       .  A
C1733      H1740   1.083       .  S
C1734      C1735   1.418       .  A
C1735      C1736   1.372       .  A
C1735      N1742   1.435       .  S
C1736      C1737   1.395       .  A
C1736      H1741   1.085       .  S
C1737      C1738   1.423       .  A
C1738      N1739   1.435       .  S
N1739      O1743   1.262       .  A
N1739      O1744   1.262   1_545  A
N1742      O1745   1.262       .  A
N1742      O1746   1.260       .  A
C1747      C1748   1.391   1_545  A
C1747      C1752   1.394       .  A
C1747      H1754   1.085   1_545  S
C1748      C1749   1.432   1_565  A
C1749      C1750   1.433       .  A
C1749      N1756   1.439   1_545  S
C1750      C1751   1.407       .  A
C1750      H1755   1.083       .  S
C1751      C1752   1.433       .  A
C1752      N1753   1.434       .  S
N1753      O1757   1.262       .  A
N1753      O1758   1.260       .  A
N1756      O1759   1.261       .  A
N1756      O1760   1.263   1_565  A
C1761      C1762   1.406       .  A
C1761      C1766   1.398       .  A
C1761      H1768   1.084       .  S
C1762      C1763   1.412       .  A
C1763      C1764   1.404       .  A
C1763      N1770   1.436       .  S
C1764      C1765   1.410       .  A
C1764      H1769   1.083       .  S
C1765      C1766   1.417       .  A
C1766      N1767   1.437       .  S
N1767      O1771   1.263       .  A
N1767      O1772   1.263       .  A
N1770      O1773   1.263       .  A
N1770      O1774   1.262       .  A
C1775      C1776   1.410       .  A
C1775      C1780   1.416       .  A
C1775      H1782   1.084       .  S
C1776      C1777   1.408       .  A
C1777      C1778   1.397       .  A
C1777      N1784   1.441       .  S
C1778      C1779   1.414       .  A
C1778      H1783   1.083       .  S
C1779      C1780   1.416       .  A
C1780      N1781   1.436       .  S
N1781      O1785   1.263       .  A
N1781      O1786   1.262       .  A
N1784      O1787   1.263       .  A
N1784      O1788   1.263       .  A
C1789      C1790   1.410       .  A
C1789      C1794   1.402   1_545  A
C1789      H1796   1.079       .  S
C1790      C1791   1.411       .  A
C1791      N1798   1.441       .  S
C1792      H1797   1.081   1_545  S
C1793      C1794   1.407       .  A
C1794      N1795   1.442       .  S
N1795      O1799   1.263       .  A
N1795      O1800   1.262       .  A
N1798      O1801   1.262       .  A
C1803      C1804   1.393       .  A
C1803      C1808   1.394       .  A
C1803      H1810   1.084       .  S
C1804      C1805   1.427       .  A
C1805      C1806   1.407       .  A
C1805      N1812   1.433       .  S
C1806      C1807   1.396       .  A
C1806      H1811   1.082       .  S
C1807      C1808   1.425       .  A
C1808      N1809   1.430       .  S
N1809      O1813   1.262       .  A
N1809      O1814   1.262       .  A
N1812      O1815   1.262       .  A
N1812      O1816   1.262       .  A
C1817      C1818   1.399       .  A
C1817      C1822   1.396       .  A
C1817      H1824   1.084       .  S
C1818      C1819   1.416       .  A
C1819      C1820   1.392       .  A
C1819      N1826   1.442       .  S
C1820      C1821   1.393       .  A
C1820      H1825   1.085       .  S
C1821      C1822   1.408       .  A
C1822      N1823   1.439       .  S
N1823      O1827   1.263       .  A
N1823      O1828   1.261       .  A
N1826      O1829   1.263       .  A
N1826      O1830   1.260       .  A
C1831      C1832   1.397       .  A
C1831      C1836   1.389       .  A
C1831      H1838   1.083       .  S
C1832      C1833   1.410       .  A
C1833      C1834   1.404       .  A
C1833      N1840   1.441       .  S
C1834      C1835   1.408       .  A
C1834      H1839   1.084       .  S
C1835      C1836   1.399       .  A
C1836      N1837   1.424       .  S
N1837      O1841   1.260   1_565  A
N1837      O1842   1.262       .  A
N1840      O1843   1.262       .  A
N1840      O1844   1.263       .  A
C1845      C1846   1.414       .  A
C1845      C1850   1.419       .  A
C1845      H1852   1.083       .  S
C1846      C1847   1.411       .  A
C1847      C1848   1.410       .  A
C1847      N1854   1.441       .  S
C1848      C1849   1.410       .  A
C1848      H1853   1.081       .  S
C1849      C1850   1.419       .  A
C1850      N1851   1.445       .  S
N1851      O1855   1.263       .  A
N1851      O1856   1.262       .  A
C1859      C1860   1.401       .  A
C1859      C1864   1.415       .  A
C1859      H1866   1.081       .  S
C1860      C1861   1.429       .  A
C1861      C1862   1.431       .  A
C1861      N1868   1.439       .  S
C1862      C1863   1.409       .  A
C1862      H1867   1.083       .  S
C1863      C1864   1.429       .  A
C1864      N1865   1.430       .  S
N1865      O1869   1.262       .  A
N1865      O1870   1.259       .  A
N1868      O1871   1.263   1_556  A
N1868      O1872   1.262       .  A
C1873      C1874   1.394       .  A
C1873      C1878   1.373       .  A
C1873      H1880   1.082       .  S
C1874      C1875   1.414       .  A
C1875      N1882   1.441       .  S
C1876      C1877   1.412       .  A
C1876      H1881   1.083       .  S
C1878      N1879   1.434       .  S
N1879      O1883   1.262       .  A
N1882      O1885   1.262       .  A
C1887      C1888   1.407       .  A
C1887      C1892   1.395       .  A
C1887      H1894   1.079       .  S
C1888      C1889   1.430       .  A
C1889      C1890   1.436       .  A
C1889      N1896   1.442       .  S
C1890      C1891   1.413       .  A
C1890      H1895   1.083       .  S
C1891      C1892   1.412       .  A
C1892      N1893   1.442       .  S
N1893      O1897   1.262       .  A
N1893      O1898   1.263       .  A
N1896      O1899   1.262       .  A
N1896      O1900   1.263       .  A
C1901      C1902   1.401       .  A
C1901      C1906   1.411   1_655  A
C1901      H1908   1.084       .  S
C1902      C1903   1.403   1_655  A
C1903      C1904   1.384       .  A
C1903      N1910   1.436       .  S
C1904      C1905   1.396       .  A
C1904      H1909   1.075       .  S
C1905      C1906   1.420       .  A
C1906      N1907   1.443       .  S
N1907      O1911   1.263   1_455  A
N1907      O1912   1.262       .  A
N1910      O1913   1.261       .  A
N1910      O1914   1.260       .  A
C1915      C1916   1.405       .  A
C1915      C1920   1.417       .  A
C1915      H1922   1.082       .  S
C1917      C1918   1.404   1_655  A
C1917      N1924   1.433       .  S
C1918      H1923   1.078       .  S
C1919      C1920   1.417   1_455  A
C1920      N1921   1.439       .  S
N1921      O1925   1.262   1_655  A
N1921      O1926   1.260       .  A
N1924      O1927   1.261       .  A
N1924      O1928   1.262   1_655  A
C1929      C1930   1.399       .  A
C1929      C1934   1.398       .  A
C1929      H1936   1.085       .  S
C1930      C1931   1.410       .  A
C1931      C1932   1.385       .  A
C1931      N1938   1.434       .  S
C1932      C1933   1.392       .  A
C1932      H1937   1.085       .  S
C1933      C1934   1.409       .  A
C1934      N1935   1.442       .  S
N1935      O1939   1.263       .  A
N1935      O1940   1.263       .  A
N1938      O1941   1.261       .  A
N1938      O1942   1.262       .  A
C1943      C1944   1.406       .  A
C1943      C1948   1.396       .  A
C1943      H1950   1.084       .  S
C1944      C1945   1.412       .  A
C1945      C1946   1.384       .  A
C1945      N1952   1.434       .  S
C1946      C1947   1.397       .  A
C1946      H1951   1.076       .  S
C1947      C1948   1.405       .  A
C1948      N1949   1.434       .  S
N1949      O1953   1.263       .  A
N1949      O1954   1.260       .  A
N1952      O1955   1.262       .  A
N1952      O1956   1.262       .  A
C1957      C1958   1.409       .  A
C1957      C1962   1.410       .  A
C1957      H1964   1.082       .  S
C1958      C1959   1.409       .  A
C1959      C1960   1.396       .  A
C1959      N1966   1.439       .  S
C1960      C1961   1.411       .  A
C1960      H1965   1.085       .  S
C1961      C1962   1.412       .  A
C1962      N1963   1.436       .  S
N1963      O1967   1.263       .  A
N1963      O1968   1.262       .  A
N1966      O1969   1.262       .  A
N1966      O1970   1.263       .  A
C1971      C1972   1.402       .  A
C1971      C1976   1.401       .  A
C1971      H1978   1.084       .  S
C1972      C1973   1.412       .  A
C1973      C1974   1.399       .  A
C1973      N1980   1.445       .  S
C1974      C1975   1.405       .  A
C1974      H1979   1.084       .  S
C1975      C1976   1.413       .  A
C1976      N1977   1.437       .  S
N1977      O1981   1.263       .  A
N1977      O1982   1.262       .  A
N1980      O1983   1.262       .  A
N1980      O1984   1.263       .  A
C1985      C1986   1.399       .  A
C1985      C1990   1.406   1_655  A
C1985      H1992   1.083       .  S
C1986      C1987   1.426   1_655  A
C1987      C1988   1.382       .  A
C1987      N1994   1.432   1_455  S
C1988      C1989   1.386       .  A
C1988      H1993   1.084       .  S
C1989      C1990   1.422       .  A
C1990      N1991   1.437       .  S
N1991      O1995   1.263       .  A
N1991      O1996   1.263       .  A
N1994      O1997   1.260       .  A
N1994      O1998   1.262   1_655  A
C1999      C2000   1.411       .  A
C1999      C2004   1.424       .  A
C1999      H2006   1.082       .  S
C2000      C2001   1.416       .  A
C2001      C2002   1.386   1_455  A
C2001      N2008   1.429       .  S
C2002      C2003   1.398       .  A
C2002      H2007   1.084       .  S
C2003      C2004   1.423   1_655  A
C2004      N2005   1.439       .  S
N2005      O2009   1.263       .  A
N2005      O2010   1.262   1_455  A
N2008      O2011   1.262       .  A
N2008      O2012   1.261       .  A
C2013      C2014   1.400       .  A
C2013      C2018   1.403       .  A
C2013      H2020   1.085       .  S
C2014      C2015   1.428       .  A
C2015      C2016   1.420       .  A
C2015      N2022   1.438       .  S
C2016      C2017   1.404       .  A
C2016      H2021   1.083       .  S
C2017      C2018   1.423       .  A
C2018      N2019   1.434       .  S
N2019      O2023   1.261       .  A
N2019      O2024   1.263       .  A
N2022      O2025   1.258       .  A
N2022      O2026   1.263       .  A
C2027      C2028   1.410       .  A
C2027      C2032   1.414       .  A
C2027      H2034   1.081       .  S
C2028      C2029   1.417       .  A
C2029      C2030   1.428       .  A
C2029      N2036   1.441       .  S
C2030      C2031   1.418       .  A
C2030      H2035   1.083       .  S
C2031      C2032   1.414       .  A
C2032      N2033   1.430       .  S
N2033      O2037   1.263       .  A
N2033      O2038   1.260       .  A
N2036      O2039   1.263       .  A
N2036      O2040   1.263       .  A
